Material: perovskite / CH3NH3PbI3 / Phillips
Optical constants. L. J. Phillips, A. M. Rashed, R. E. Treharne, J. Kay, P. Yates, I. Mitrovic, A. Weerakkody, S. Hall, K. Durose, Dispersion relation data for methylammonium lead triiodide perovskite deposited on a (100) silicon wafer using a two-step vapour-phase reaction processs, Data in Brief 5, 926-928 (2015)
Comments: A MAPI film was deposited onto a silicon wafer using a two-step vapour reaction phase process and a variable-angle ellipsometer used to take amplitude and phase change measurements. The refractive index and extinction coefficient was extracted from a multi-oscillator model fit to the ellipsometry data, as a function of wavelength, from 300 to 1500 nm
wavelength (um)	n	k
0.300009583	1.980725	0.559247
0.303192139	1.967736	0.569127
0.306374725	1.955809	0.581694
0.309557373	1.945394	0.596945
0.312740051	1.93698	0.614791
0.31592276	1.931082	0.635029
0.319105499	1.928204	0.657335
0.322288269	1.928809	0.681251
0.325471069	1.933274	0.706198
0.3286539	1.941856	0.731488
0.331836792	1.954655	0.756369
0.335019684	1.971599	0.780059
0.338202576	1.992435	0.801804
0.341385529	2.016751	0.820922
0.344568481	2.043994	0.836844
0.347751434	2.073511	0.849143
0.350934418	2.104595	0.857552
0.354117401	2.136519	0.861963
0.357300415	2.168585	0.86242
0.360483429	2.200149	0.859098
0.363666443	2.230647	0.852282
0.366849457	2.259614	0.842334
0.370032471	2.286687	0.829672
0.373215485	2.311604	0.814735
0.376398499	2.3342	0.797967
0.379581482	2.354396	0.779796
0.382764465	2.372183	0.760621
0.385947449	2.387614	0.740803
0.389130432	2.400784	0.720658
0.392313416	2.411821	0.70046
0.395496338	2.420877	0.680437
0.39867926	2.428113	0.660776
0.401862122	2.433697	0.641626
0.405045013	2.437796	0.623103
0.408227844	2.440569	0.605292
0.411410706	2.442172	0.588255
0.414593445	2.442749	0.572033
0.417776215	2.442431	0.55665
0.420958923	2.441343	0.542116
0.424141602	2.439595	0.528432
0.427324219	2.437287	0.515589
0.430506836	2.434511	0.503572
0.433689362	2.431349	0.492362
0.436871887	2.427873	0.481936
0.440054352	2.42415	0.472269
0.443236725	2.420238	0.463335
0.446419098	2.416191	0.455107
0.449601379	2.412056	0.447556
0.4527836	2.407877	0.440655
0.455965759	2.403693	0.434377
0.459147888	2.399539	0.428693
0.462329987	2.395449	0.423578
0.465511963	2.391452	0.419003
0.468693848	2.387576	0.414944
0.471875671	2.383846	0.411372
0.475057465	2.380287	0.408263
0.478239166	2.37692	0.405591
0.481420746	2.373767	0.403328
0.484602295	2.370846	0.401449
0.487783752	2.368175	0.399928
0.490965149	2.36577	0.398738
0.494146393	2.363646	0.397851
0.497327576	2.361817	0.397241
0.500508698	2.360294	0.396879
0.503689697	2.359088	0.396737
0.506870605	2.358208	0.396786
0.510051422	2.35766	0.396997
0.513232117	2.35745	0.397342
0.51641272	2.357579	0.39779
0.519593262	2.358051	0.398312
0.522773682	2.358863	0.398878
0.525953979	2.360013	0.399459
0.529134155	2.361494	0.400026
0.532314209	2.363301	0.400551
0.535494141	2.365423	0.401007
0.53867395	2.367848	0.401366
0.541853699	2.370563	0.401604
0.545033325	2.373551	0.401695
0.548212769	2.376796	0.401619
0.55139209	2.380278	0.401354
0.554571289	2.383976	0.400881
0.557750366	2.387868	0.400183
0.560929321	2.391931	0.399247
0.564108093	2.39614	0.398058
0.567286743	2.40047	0.396608
0.570465271	2.404895	0.394888
0.573643677	2.40939	0.392893
0.576821899	2.413929	0.390621
0.580000061	2.418486	0.38807
0.583177979	2.423036	0.385242
0.586355774	2.427554	0.382141
0.589533386	2.432016	0.378774
0.592710876	2.436399	0.375147
0.595888245	2.440682	0.371271
0.599065369	2.444843	0.367159
0.602242371	2.448865	0.362821
0.605419189	2.452729	0.358275
0.608595886	2.456419	0.353534
0.611772339	2.459921	0.348616
0.61494873	2.463223	0.343539
0.618124878	2.466314	0.338322
0.621300842	2.469184	0.332983
0.624476685	2.471827	0.327542
0.627652222	2.474236	0.322018
0.630827698	2.476408	0.316433
0.63400293	2.478341	0.310805
0.63717804	2.480033	0.305154
0.640352905	2.481486	0.299501
0.643527588	2.482701	0.293865
0.646702026	2.483684	0.288265
0.649876343	2.484438	0.282719
0.653050415	2.484971	0.277246
0.656224365	2.48529	0.271865
0.659398071	2.485404	0.266592
0.662571533	2.485323	0.261445
0.665744812	2.485059	0.25644
0.668917847	2.484625	0.251594
0.672090698	2.484033	0.246922
0.675263367	2.4833	0.242441
0.678435791	2.482443	0.238165
0.681608032	2.481479	0.234111
0.684779968	2.480428	0.230293
0.687951782	2.479315	0.226727
0.691123291	2.478162	0.223427
0.694294617	2.477	0.220409
0.697465698	2.475859	0.217688
0.700636597	2.474776	0.215279
0.70380719	2.473794	0.213194
0.706977539	2.472963	0.211446
0.710147705	2.47234	0.210045
0.713317627	2.471994	0.208995
0.716487244	2.472008	0.208297
0.719656677	2.472476	0.207936
0.722825806	2.473513	0.207884
0.725994751	2.475253	0.208087
0.729163452	2.477845	0.208454
0.732331848	2.481455	0.208842
0.7355	2.486249	0.209035
0.738667847	2.492372	0.208726
0.741835571	2.499907	0.207495
0.745002869	2.508806	0.204811
0.748170044	2.518816	0.200064
0.751336853	2.529388	0.192658
0.754503418	2.539654	0.182174
0.757669739	2.548496	0.168569
0.760835754	2.554768	0.152328
0.764001465	2.557602	0.134448
0.767166931	2.556664	0.116223
0.770332153	2.552217	0.098909
0.773497009	2.544971	0.083437
0.776661682	2.535826	0.070301
0.779825989	2.525647	0.059601
0.782990051	2.515131	0.051164
0.786153809	2.504771	0.044687
0.789317261	2.494883	0.039824
0.792480408	2.485646	0.036248
0.79564325	2.477154	0.033679
0.798805786	2.469462	0.031884
0.801968079	2.462691	0.030588
0.805130005	2.456638	0.029381
0.808291626	2.45106	0.028234
0.811453003	2.445852	0.027144
0.814614014	2.440947	0.02611
0.81777478	2.436297	0.025132
0.820935181	2.431869	0.024207
0.824095215	2.427635	0.023333
0.827255005	2.423574	0.022509
0.830414368	2.419671	0.021732
0.833573425	2.41591	0.021001
0.836732239	2.412279	0.020314
0.839890747	2.40877	0.019669
0.843048828	2.405373	0.019064
0.846206543	2.402081	0.018497
0.849364075	2.398888	0.017967
0.852521118	2.395787	0.017472
0.855677856	2.392776	0.017011
0.85883429	2.389847	0.016582
0.861990356	2.386998	0.016183
0.865146118	2.384225	0.015813
0.868301453	2.381525	0.01547
0.871456421	2.378893	0.015154
0.874611145	2.376329	0.014863
0.877765442	2.373829	0.014596
0.880919434	2.37139	0.014351
0.884073059	2.369011	0.014128
0.887226257	2.366689	0.013925
0.890379089	2.364422	0.013741
0.893531555	2.362209	0.013576
0.896683716	2.360047	0.013427
0.899835449	2.357936	0.013296
0.902986816	2.355873	0.013179
0.906137817	2.353857	0.013078
0.909288452	2.351886	0.01299
0.91243866	2.349959	0.012915
0.915588562	2.348076	0.012852
0.918737976	2.346233	0.012802
0.921887085	2.344432	0.012762
0.925035828	2.342669	0.012732
0.928184082	2.340945	0.012712
0.931332031	2.339257	0.012702
0.934479492	2.337606	0.0127
0.937626648	2.33599	0.012706
0.940773315	2.334407	0.012719
0.943919617	2.332858	0.01274
0.947065552	2.331342	0.012767
0.95021106	2.329856	0.0128
0.953356079	2.328401	0.012839
0.956500793	2.326976	0.012883
0.95964502	2.32558	0.012933
0.962788879	2.324212	0.012987
0.965932251	2.322872	0.013045
0.969075317	2.321558	0.013108
0.972217896	2.320271	0.013174
0.975359985	2.319009	0.013243
0.978501648	2.317771	0.013315
0.981642944	2.316558	0.013391
0.984783813	2.315369	0.013469
0.987924194	2.314202	0.013549
0.99106427	2.313058	0.013631
0.994203796	2.311935	0.013716
0.997342896	2.310834	0.013802
1.01227179	2.305872	0.01423
1.019227905	2.303704	0.014436
1.026178101	2.301624	0.014645
1.033122314	2.299626	0.014855
1.040060791	2.297707	0.015065
1.04699353	2.295861	0.015274
1.053920776	2.294086	0.015481
1.060842651	2.292377	0.015685
1.067759155	2.290732	0.015887
1.074670532	2.289146	0.016084
1.081576904	2.287617	0.016278
1.088478149	2.286143	0.016467
1.095374634	2.28472	0.016651
1.102266357	2.283346	0.01683
1.109153564	2.282018	0.017004
1.116036133	2.280735	0.017172
1.122914429	2.279494	0.017335
1.129788452	2.278294	0.017492
1.136658447	2.277131	0.017644
1.143524292	2.276005	0.01779
1.15038623	2.274914	0.01793
1.157244385	2.273857	0.018064
1.164098999	2.27283	0.018193
1.170949951	2.271835	0.018316
1.177797485	2.270868	0.018433
1.184641724	2.269929	0.018545
1.191482666	2.269017	0.018651
1.198320557	2.26813	0.018752
1.205155518	2.267267	0.018848
1.211987671	2.266427	0.018939
1.218817139	2.26561	0.019024
1.225643799	2.264814	0.019105
1.23246814	2.264038	0.01918
1.239290039	2.263282	0.019251
1.246109619	2.262545	0.019317
1.252927002	2.261826	0.019379
1.259742432	2.261124	0.019436
1.26655603	2.260438	0.019489
1.273367798	2.259769	0.019538
1.280177856	2.259115	0.019583
1.286986206	2.258476	0.019624
1.293793213	2.25785	0.019661
1.300598999	2.257239	0.019694
1.307403564	2.25664	0.019723
1.314206787	2.256055	0.019749
1.321009277	2.255481	0.019771
1.327810791	2.254919	0.019791
1.334611572	2.254368	0.019807
1.341411865	2.253828	0.019819
1.348211426	2.253299	0.019829
1.355010742	2.252779	0.019836
1.361809692	2.25227	0.01984
1.368608521	2.251769	0.019841
1.375407349	2.251278	0.019839
1.382206177	2.250795	0.019835
1.389005127	2.250321	0.019828
1.395804443	2.249855	0.019819
1.402604248	2.249397	0.019808
1.409404541	2.248946	0.019794
1.416205566	2.248503	0.019778
1.423007324	2.248067	0.01976
1.429809937	2.247637	0.019739
1.436613525	2.247214	0.019717
1.443418335	2.246798	0.019693
1.450224365	2.246387	0.019667
1.457031738	2.245983	0.019639
1.463840576	2.245584	0.01961
1.470651123	2.245192	0.019578
1.477463135	2.244804	0.019545
1.4842771	2.244421	0.019511
1.491093018	2.244044	0.019475
1.497911133	2.243672	0.019437
