Material: schott / obsolete / SF14
Optical constants. SCHOTT Zemax catalog 2015-07-22
Comments: was replaced by N-SF14
Dispersion formula 2, range 0.39 2.5 um, coefficients 0 1.69182538 0.0133151542 0.285919934 0.0612647445 1.12595145 118.405242
wavelength (um)	k
0.390	3.9959E-06
0.400	1.6208E-06
0.405	1.1494E-06
0.420	4.0255E-07
0.436	1.9327E-07
0.460	9.0600E-08
0.500	4.1928E-08
0.546	2.0982E-08
0.580	1.8555E-08
0.620	1.9835E-08
0.660	2.1114E-08
0.700	1.7897E-08
1.060	1.0137E-08
1.530	8.8461E-08
1.970	5.2286E-07
2.325	2.7461E-06
2.500	4.0650E-06
