Material: schott / obsolete / SF66
Optical constants. SCHOTT Zemax catalog 2015-07-22
Comments: was replaced by N-SF66
Dispersion formula 2, range 0.39 2.5 um, coefficients 0 2.07842233 0.0180875134 0.407120032 0.0679493572 1.76711292 215.266127
wavelength (um)	k
0.390	3.7189E-06
0.400	1.8171E-06
0.405	1.3908E-06
0.420	6.6083E-07
0.436	3.6273E-07
0.460	1.7063E-07
0.500	5.6702E-08
0.546	2.6267E-08
0.580	2.2288E-08
0.620	2.1829E-08
0.660	2.3237E-08
0.700	2.2394E-08
1.060	1.6913E-08
1.530	4.8947E-08
1.970	5.2286E-07
2.325	2.2284E-06
2.500	2.8383E-06
