Material: organic / C2H6O2 - ethylene glycol / Sani
Optical constants. 1) E. Sani and A. Dell'Oro. Optical constants of ethylene glycol over an extremely wide spectral range, Optical Materials 37, 36-41 (2014)2) E. Sani and A. Dell'Oro. Corrigendum to "Optical constants of ethylene glycol over an extremely wide spectral range", Optical Materials 48, 281 (2015)
Comments: Room temperature
wavelength (um)	n	k
0.1852	1.5666	4.897E-4
0.1868	1.5633	4.721E-4
0.1885	1.5600	4.313E-4
0.1902	1.5568	3.739E-4
0.1919	1.5537	3.135E-4
0.1936	1.5505	2.567E-4
0.1954	1.5475	2.036E-4
0.1972	1.5444	1.560E-4
0.1991	1.5414	1.151E-4
0.2010	1.5384	8.159E-5
0.2029	1.5356	5.828E-5
0.2049	1.5327	3.803E-5
0.2069	1.5299	2.621E-5
0.2089	1.5273	1.537E-5
0.2110	1.5246	1.052E-5
0.2131	1.5221	6.098E-6
0.2153	1.5196	4.621E-6
0.2175	1.5171	3.330E-6
0.2197	1.5147	2.907E-6
0.2220	1.5124	2.565E-6
0.2244	1.5100	2.432E-6
0.2268	1.5077	2.291E-6
0.2292	1.5055	2.128E-6
0.2318	1.5032	1.937E-6
0.2343	1.5011	1.718E-6
0.2369	1.4989	1.540E-6
0.2396	1.4969	1.379E-6
0.2424	1.4949	1.262E-6
0.2452	1.4929	1.165E-6
0.2480	1.4910	1.085E-6
0.2510	1.4891	1.037E-6
0.2540	1.4872	9.905E-7
0.2570	1.4854	9.459E-7
0.2602	1.4837	9.029E-7
0.2634	1.4819	8.678E-7
0.2668	1.4801	8.582E-7
0.2702	1.4784	8.668E-7
0.2736	1.4767	8.319E-7
0.2772	1.4751	8.188E-7
0.2809	1.4735	7.833E-7
0.2847	1.4719	7.343E-7
0.2885	1.4704	6.806E-7
0.2925	1.4689	6.402E-7
0.2966	1.4675	6.397E-7
0.3008	1.4661	6.293E-7
0.3052	1.4647	5.030E-7
0.3096	1.4633	3.106E-7
0.3142	1.4620	1.882E-7
0.3189	1.4606	1.609E-7
0.3238	1.4593	1.415E-7
0.3288	1.4580	1.235E-7
0.3340	1.4567	1.089E-7
0.3394	1.4555	9.146E-8
0.3449	1.4543	3.127E-8
0.3506	1.4531	3.156E-8
0.3565	1.4520	3.210E-8
0.3626	1.4509	3.264E-8
0.3689	1.4499	3.321E-8
0.3754	1.4488	3.380E-8
0.3822	1.4478	3.441E-8
0.3892	1.4468	3.504E-8
0.3965	1.4458	3.570E-8
0.4040	1.4448	3.638E-8
0.4119	1.4438	3.708E-8
0.4201	1.4428	3.782E-8
0.4285	1.4419	3.858E-8
0.4374	1.4410	3.938E-8
0.4466	1.4401	4.021E-8
0.4562	1.4393	4.107E-8
0.4663	1.4385	4.198E-8
0.4767	1.4377	4.292E-8
0.4877	1.4369	4.391E-8
0.4992	1.4362	4.494E-8
0.5112	1.4354	4.603E-8
0.5239	1.4347	4.717E-8
0.5371	1.4340	4.836E-8
0.5511	1.4333	4.962E-8
0.5658	1.4326	5.094E-8
0.5813	1.4319	5.234E-8
0.5977	1.4313	5.382E-8
0.6151	1.4306	5.538E-8
0.6335	1.4300	5.703E-8
0.6530	1.4295	5.879E-8
0.6667	1.4291	6.002E-8
0.6721	1.4289	6.051E-8
0.6776	1.4289	6.101E-8
0.6832	1.4286	6.151E-8
0.6889	1.4285	6.202E-8
0.6947	1.4284	6.254E-8
0.7006	1.4282	6.308E-8
0.7066	1.4281	6.361E-8
0.7126	1.4280	6.416E-8
0.7188	1.4278	6.472E-8
0.7251	1.4277	6.529E-8
0.7316	1.4276	6.587E-8
0.7381	1.4274	6.645E-8
0.7447	1.4273	6.705E-8
0.7515	1.4272	6.766E-8
0.7584	1.4270	6.828E-8
0.7654	1.4270	6.891E-8
0.7726	1.4268	6.956E-8
0.7799	1.4266	7.022E-8
0.7873	1.4266	7.088E-8
0.7949	1.4264	7.157E-8
0.8026	1.4262	7.226E-8
0.8105	1.4262	7.297E-8
0.8185	1.4260	7.369E-8
0.8267	1.4259	7.443E-8
0.8350	1.4258	7.518E-8
0.8435	1.4256	7.595E-8
0.8522	1.4255	7.673E-8
0.8611	1.4254	7.753E-8
0.8702	1.4252	7.835E-8
0.8794	1.4252	1.307E-7
0.8889	1.4250	2.659E-7
0.8986	1.4249	4.734E-7
0.9084	1.4248	6.930E-7
0.9185	1.4247	8.444E-7
0.9288	1.4245	8.395E-7
0.9394	1.4245	7.412E-7
0.9502	1.4243	6.730E-7
0.9612	1.4242	7.818E-7
0.9725	1.4241	1.188E-6
0.9841	1.4239	1.794E-6
0.9960	1.4238	2.061E-6
1.008	1.4238	2.168E-6
1.021	1.4236	2.174E-6
1.033	1.4235	2.130E-6
1.046	1.4234	2.095E-6
1.060	1.4232	1.999E-6
1.074	1.4232	1.865E-6
1.088	1.4230	1.724E-6
1.102	1.4228	1.606E-6
1.117	1.4228	1.592E-6
1.132	1.4226	1.851E-6
1.148	1.4225	2.997E-6
1.164	1.4225	5.203E-6
1.181	1.4223	8.681E-6
1.198	1.4221	1.162E-5
1.216	1.4221	1.204E-5
1.234	1.4219	9.161E-6
1.253	1.4218	7.545E-6
1.272	1.4217	6.735E-6
1.292	1.4214	5.996E-6
1.312	1.4214	6.066E-6
1.333	1.4212	7.906E-6
1.355	1.4210	1.215E-5
1.378	1.4209	1.823E-5
1.401	1.4207	3.439E-5
1.425	1.4205	6.978E-5
1.450	1.4204	1.028E-4
1.476	1.4203	1.212E-4
1.503	1.4201	1.295E-4
1.531	1.4200	1.302E-4
1.560	1.4198	1.433E-4
1.590	1.4196	1.503E-4
1.621	1.4195	1.219E-4
1.653	1.4192	9.230E-5
1.687	1.4189	9.243E-5
1.722	1.4187	1.223E-4
1.759	1.4184	1.109E-4
1.797	1.4182	9.183E-5
1.837	1.4178	6.743E-5
1.879	1.4174	6.394E-5
1.922	1.4170	1.342E-4
1.968	1.4166	1.522E-4
2.005	1.4161	1.633E-4
2.020	1.4159	2.019E-4
2.034	1.4157	2.723E-4
2.050	1.4156	3.680E-4
2.065	1.4154	4.600E-4
2.081	1.4153	5.167E-4
2.096	1.4153	5.268E-4
2.112	1.4151	4.978E-4
2.129	1.4150	4.491E-4
2.145	1.4148	3.969E-4
2.162	1.4146	3.495E-4
2.179	1.4143	3.126E-4
2.197	1.4140	2.867E-4
2.214	1.4137	2.719E-4
2.232	1.4134	2.774E-4
2.250	1.4130	3.498E-4
2.269	1.4126	5.904E-4
2.288	1.4125	8.319E-4
2.307	1.4124	6.770E-4
2.326	1.4121	5.789E-4
2.346	1.4117	5.182E-4
2.366	1.4112	4.900E-4
2.387	1.4107	5.090E-4
2.408	1.4102	5.547E-4
2.429	1.4096	5.855E-4
2.451	1.4089	6.964E-4
2.473	1.4083	9.943E-4
2.495	1.4079	1.240E-3
2.518	1.4075	1.140E-3
2.541	1.4067	9.342E-4
2.565	1.4058	7.415E-4
2.589	1.4045	5.706E-4
2.613	1.4030	6.281E-4
2.638	1.4015	7.317E-4
2.664	1.3995	7.882E-4
2.690	1.3972	9.453E-4
2.716	1.3940	1.020E-3
2.743	1.3895	1.830E-3
2.771	1.3836	4.170E-3
2.799	1.3771	9.240E-3
2.828	1.3708	1.769E-2
2.857	1.3665	3.056E-2
2.887	1.3684	4.757E-2
2.918	1.3782	6.380E-2
2.949	1.3938	7.729E-2
2.981	1.4128	7.871E-2
3.013	1.4324	7.310E-2
3.047	1.4453	6.607E-2
3.081	1.4537	5.339E-2
3.116	1.4574	4.029E-2
3.151	1.4565	2.895E-2
3.188	1.4529	2.019E-2
3.225	1.4478	1.411E-2
3.263	1.4422	1.025E-2
3.302	1.4358	8.060E-3
3.342	1.4263	8.510E-3
3.383	1.4210	2.818E-2
3.425	1.4395	2.633E-2
3.469	1.4381	2.690E-2
3.513	1.4480	1.672E-2
3.558	1.4448	1.028E-2
3.605	1.4415	7.430E-3
3.652	1.4389	6.150E-3
3.701	1.4377	5.310E-3
3.752	1.4359	4.520E-3
3.804	1.4348	4.160E-3
3.857	1.4338	3.480E-3
3.912	1.4325	3.150E-3
3.968	1.4316	2.850E-3
4.026	1.4309	2.760E-3
4.086	1.4304	2.340E-3
4.147	1.4297	1.850E-3
4.211	1.4293	9.480E-4
4.276	1.4271	4.155E-4
4.343	1.4258	1.150E-3
4.413	1.4254	1.470E-3
4.485	1.4249	1.440E-3
4.559	1.4242	1.360E-3
4.636	1.4234	1.480E-3
4.715	1.4230	1.760E-3
4.797	1.4226	1.550E-3
4.882	1.4218	1.100E-3
4.970	1.4207	9.778E-4
5.037	1.4198	1.140E-3
5.093	1.4193	1.520E-3
5.151	1.4191	1.720E-3
5.210	1.4189	1.630E-3
5.270	1.4184	1.350E-3
5.332	1.4177	1.160E-3
5.396	1.4169	1.190E-3
5.460	1.4161	1.260E-3
5.527	1.4153	1.350E-3
5.595	1.4143	1.550E-3
5.664	1.4134	1.900E-3
5.736	1.4126	2.240E-3
5.809	1.4118	2.380E-3
5.884	1.4104	2.810E-3
5.962	1.4093	4.030E-3
6.041	1.4095	5.160E-3
6.122	1.4096	4.670E-3
6.206	1.4085	3.850E-3
6.292	1.4064	3.580E-3
6.380	1.4041	3.710E-3
6.471	1.4012	4.260E-3
6.564	1.3976	5.430E-3
6.660	1.3921	8.010E-3
6.759	1.3861	1.642E-2
6.861	1.3944	3.124E-2
6.966	1.3978	2.910E-2
7.075	1.4027	3.312E-2
7.187	1.4094	3.193E-2
7.302	1.4112	3.035E-2
7.421	1.4115	2.652E-2
7.544	1.4145	2.798E-2
7.672	1.4169	2.117E-2
7.803	1.4111	1.696E-2
7.939	1.4068	2.055E-2
8.081	1.4063	1.881E-2
8.227	1.4008	2.288E-2
8.378	1.4069	2.313E-2
8.536	1.4016	1.426E-2
8.699	1.3881	1.091E-2
8.869	1.3667	1.123E-2
9.045	1.3071	3.235E-2
9.229	1.3968	1.741E-1
9.420	1.3925	9.342E-2
9.619	1.4718	1.726E-1
9.827	1.5233	5.062E-2
10.04	1.4766	1.593E-2
10.27	1.4531	1.163E-2
10.51	1.4372	1.058E-2
10.76	1.4215	1.158E-2
11.02	1.3965	1.890E-2
11.29	1.3960	1.002E-1
11.58	1.4577	7.854E-2
11.88	1.4601	2.097E-2
12.20	1.4359	1.950E-2
12.54	1.4261	2.450E-2
12.89	1.4198	3.005E-2
13.27	1.4165	3.676E-2
13.67	1.4154	4.341E-2
14.09	1.4160	5.012E-2
14.54	1.4185	5.583E-2
15.02	1.4220	6.238E-2
15.54	1.4267	6.562E-2
16.08	1.4332	7.011E-2
16.67	1.4386	7.282E-2
17.31	1.4427	6.974E-2
17.99	1.4468	7.177E-2
18.74	1.4445	7.889E-2
19.54	1.4756	8.596E-2
20.42	1.4785	6.699E-2
21.38	1.4819	5.970E-2
22.43	1.4804	4.795E-2
23.60	1.4778	4.746E-2
24.89	1.4704	4.387E-2
26.33	1.4671	4.683E-2
27.95	1.4666	5.068E-2
29.78	1.4672	5.450E-2
31.87	1.4690	5.897E-2
34.27	1.4736	6.418E-2
37.07	1.4799	6.836E-2
40.36	1.4845	7.520E-2
44.29	1.5018	8.551E-2
49.06	1.5335	9.209E-2
55.00	1.6168	8.849E-2
