Material: main / W / Ordal
Optical constants. M. A. Ordal et al. Optical properties of Al, Fe, Ti, Ta, W, and Mo at submillimeter wavelengths, Appl. Opt. 27, 1203-1209 (1988)
Comments: "We have used a nonresonant cavity to measure, at room temperature, the angle averaged absorptance spectra P(ω) of aluminum, molybdenum, tantalum, titanium, tungsten, and iron in the 30-300-cm-1 wavenumber region. The real part of the normalized surface impedance spectrum, z(ω) = r(ω) + ix(ω), was determined from P(ω). Measurements were also made on iron from 400 to 4000 cm-1 using standard reflectance techniques. The r(ω) spectrum was combined with previous measurements by others at higher frequencies and Kramers-Kronig analyses of the resultant combined r(ω) spectra provided ε(ω) = ε1(ω) + iε2(ω) and N(ω) = n(o) + ik(ω)."
wavelength (um)	n	k
0.667	3.8312601	2.9042727
0.714	3.9313491	2.7924078
0.769	3.7783360	2.6322954
0.833	3.5190631	2.7670600
0.909	3.2814572	3.0100921
1.00	3.0826871	3.4208368
1.05	3.0570934	3.7224010
1.11	3.0821649	3.9693342
1.18	3.1599449	4.1791582
1.25	3.1960757	4.3367596
1.33	3.1990778	4.4460869
1.43	3.0278249	4.3901355
1.54	2.2587782	4.7741297
1.67	1.8828191	5.4881071
1.82	1.5455798	6.4453363
2.00	1.2992808	7.5659499
2.11	1.1946455	8.2613235
2.22	1.2212030	9.0476312
2.35	1.2886548	9.8569158
2.50	1.4507921	10.710594
2.67	1.6746349	11.554665
2.86	1.8748013	12.375593
3.08	1.9169200	13.261664
3.33	1.8505739	14.400460
3.64	1.8774806	15.887186
4.00	1.9949739	17.694770
4.44	2.2388765	19.898510
5.00	2.6672954	22.612178
5.71	3.3712766	26.005432
6.67	4.4961625	30.343034
8.00	6.2868052	36.072044
10.0	9.1935519	44.019189
11.1	10.843912	48.146015
12.5	12.935818	53.112521
14.3	15.634532	59.208636
16.7	19.231714	66.923752
20.0	24.256111	77.087223
22.2	27.599188	83.517367
25.0	31.772550	91.217414
28.6	37.127733	100.62038
33.3	44.209069	112.34062
40.0	54.191208	128.08146
44.4	61.731428	136.67195
50.0	68.665703	146.58093
57.1	76.505227	159.83902
66.7	87.148396	177.92054
80.0	103.53408	202.21197
100	130.21900	234.03939
125	163.02849	265.86909
154	196.84283	294.94073
200	242.14161	332.81796
