Material: glass / schott / N-SF57HT
Optical constants. 1) SCHOTT optical glass data sheets 2015-07-222) SCHOTT Zemax catalog 2015-07-22
Dispersion formula 2, range 0.37 2.5 um, coefficients 0 1.87543831 0.0141749518 0.37375749 0.0640509927 2.30001797 177.389795
wavelength (um)	k
0.370	8.1356E-06
0.380	2.9126E-06
0.390	1.3033E-06
0.400	7.3825E-07
0.405	5.9564E-07
0.420	3.6690E-07
0.436	2.5859E-07
0.460	1.8219E-07
0.500	1.1208E-07
0.546	5.8321E-08
0.580	4.2958E-08
0.620	5.4018E-08
0.660	6.1825E-08
0.700	4.7290E-08
1.060	6.7549E-09
1.530	9.8390E-08
1.970	7.0965E-07
2.325	3.2797E-06
2.500	4.2801E-06
