Material: organic / C5H12 - pentane / Anderson
Optical constants. M. R. Anderson. Determination of infrared optical constatns for single components hydrocarbon fuels, Master Thesis (2009) [pdf]
Comments: Iso-pentane
wavelength (um)	n	k
2.000	1.343	0.0000239
2.128	1.343	0.0002825
2.273	1.342	0.0005765
2.439	1.342	0.0006334
2.568	1.342	0.0003050
2.592	1.342	0.0003075
2.616	1.342	0.0002838
2.640	1.342	0.0002441
2.664	1.342	0.0002008
2.688	1.341	0.0001586
2.712	1.341	0.0001459
2.736	1.341	0.0001413
2.760	1.341	0.0001143
2.784	1.341	0.0000805
2.808	1.341	0.0000534
2.832	1.340	0.0000442
2.856	1.340	0.0000493
2.880	1.340	0.0000621
2.904	1.340	0.0000972
2.928	1.339	0.0001559
2.952	1.339	0.0002199
2.976	1.339	0.0002815
3.000	1.339	0.0003580
3.024	1.338	0.0003851
3.048	1.338	0.0003300
3.072	1.337	0.0003245
3.096	1.337	0.0004574
3.120	1.336	0.0007805
3.144	1.336	0.0011856
3.168	1.335	0.0014581
3.192	1.335	0.0012666
3.216	1.334	0.0011651
3.240	1.332	0.0012048
3.264	1.330	0.0014535
3.288	1.328	0.0020016
3.344	1.315	0.0041187
3.368	1.304	0.0182273
3.392	1.310	0.0446614
3.416	1.340	0.0590949
3.440	1.355	0.0481052
3.464	1.363	0.0417963
3.488	1.374	0.0347950
3.512	1.379	0.0196433
3.536	1.373	0.0049932
3.560	1.366	0.0020489
3.584	1.359	0.0008669
3.608	1.356	0.0016136
3.632	1.355	0.0023723
3.656	1.354	0.0024234
3.680	1.354	0.0022529
3.704	1.353	0.0017586
3.728	1.352	0.0018776
3.752	1.352	0.0013203
3.776	1.351	0.0013258
3.800	1.350	0.0014858
3.824	1.350	0.0016442
3.848	1.350	0.0016665
3.872	1.350	0.0013373
3.896	1.350	0.0008105
3.920	1.349	0.0004967
3.944	1.349	0.0003580
3.968	1.349	0.0003423
3.992	1.348	0.0003678
4.016	1.348	0.0003743
4.040	1.348	0.0003761
4.064	1.348	0.0003920
4.088	1.347	0.0003985
4.112	1.347	0.0004270
4.136	1.347	0.0004983
4.160	1.347	0.0005417
4.184	1.347	0.0005442
4.208	1.347	0.0005494
4.232	1.347	0.0005233
4.256	1.347	0.0004316
4.280	1.347	0.0003635
4.304	1.346	0.0003608
4.328	1.346	0.0003864
4.352	1.346	0.0004009
4.376	1.346	0.0004292
4.400	1.346	0.0004370
4.424	1.346	0.0004248
4.448	1.346	0.0003801
4.472	1.346	0.0003198
4.496	1.346	0.0002499
4.520	1.346	0.0002207
4.544	1.346	0.0002034
4.568	1.345	0.0002003
4.592	1.345	0.0002363
4.616	1.345	0.0002492
4.640	1.345	0.0002235
4.664	1.345	0.0002194
4.688	1.345	0.0002425
4.712	1.345	0.0002438
4.736	1.345	0.0002133
4.760	1.345	0.0002134
4.784	1.345	0.0002108
4.808	1.345	0.0001929
4.832	1.345	0.0001937
4.856	1.345	0.0002117
4.880	1.345	0.0001989
4.904	1.344	0.0001952
4.928	1.344	0.0000984
4.952	1.344	0.0000749
4.976	1.344	0.0000645
5.000	1.344	0.0000619
5.024	1.344	0.0000652
5.048	1.344	0.0000725
5.072	1.344	0.0000954
5.096	1.344	0.0001190
5.120	1.344	0.0001446
5.144	1.344	0.0001958
5.168	1.343	0.0002365
5.192	1.343	0.0002355
5.216	1.343	0.0001972
5.240	1.343	0.0001666
5.264	1.343	0.0001472
5.288	1.343	0.0001446
5.312	1.343	0.0001686
5.336	1.343	0.0001933
5.360	1.343	0.0002064
5.384	1.343	0.0002100
5.408	1.343	0.0002517
5.456	1.342	0.0003426
5.504	1.342	0.0003164
5.552	1.342	0.0002818
5.616	1.342	0.0003370
5.664	1.342	0.0003942
5.712	1.341	0.0004857
5.760	1.341	0.0005769
5.824	1.341	0.0006544
5.872	1.341	0.0007804
5.920	1.340	0.0009162
5.984	1.340	0.0011269
6.048	1.340	0.0011158
6.112	1.339	0.0009166
6.160	1.339	0.0008145
6.208	1.338	0.0007937
6.256	1.338	0.0008106
6.304	1.337	0.0008551
6.352	1.336	0.0010266
6.400	1.335	0.0013303
6.448	1.334	0.0014277
6.496	1.332	0.0016381
6.624	1.325	0.0020933
6.672	1.316	0.0092482
6.720	1.317	0.0140369
6.768	1.311	0.0210066
6.816	1.309	0.0477826
6.864	1.345	0.0672714
6.912	1.372	0.0393588
6.960	1.365	0.0219260
7.008	1.359	0.0189324
7.056	1.357	0.0164005
7.104	1.355	0.0138390
7.152	1.352	0.0129628
7.200	1.347	0.0166159
7.248	1.351	0.0285845
7.296	1.366	0.0241517
7.344	1.371	0.0165997
7.392	1.366	0.0068942
7.440	1.362	0.0055180
7.488	1.361	0.0051926
7.536	1.360	0.0026334
7.584	1.357	0.0011985
7.632	1.355	0.0016361
7.680	1.354	0.0025445
7.728	1.354	0.0037020
7.776	1.355	0.0021943
7.824	1.354	0.0020776
7.872	1.353	0.0016431
7.920	1.352	0.0022760
7.984	1.352	0.0021043
8.032	1.352	0.0017060
8.080	1.352	0.0014211
8.144	1.351	0.0013131
8.192	1.351	0.0011296
8.240	1.350	0.0011084
8.336	1.349	0.0012473
8.384	1.348	0.0017061
8.464	1.348	0.0022866
8.512	1.347	0.0049170
8.560	1.350	0.0049950
8.608	1.351	0.0024775
8.656	1.349	0.0017016
8.704	1.346	0.0037619
8.752	1.349	0.0081212
8.800	1.352	0.0052493
8.864	1.353	0.0038857
8.912	1.353	0.0022408
8.960	1.352	0.0014116
9.008	1.351	0.0008719
9.056	1.351	0.0006612
9.104	1.350	0.0005233
9.168	1.349	0.0004934
9.216	1.349	0.0004248
9.280	1.349	0.0005886
9.360	1.348	0.0005087
9.424	1.347	0.0006469
9.472	1.347	0.0007619
9.520	1.346	0.0009852
9.568	1.346	0.0013747
9.632	1.345	0.0023287
9.680	1.345	0.0037679
9.728	1.346	0.0037070
9.776	1.345	0.0035137
9.824	1.344	0.0051242
9.872	1.345	0.0086071
9.920	1.349	0.0094010
9.968	1.351	0.0072063
10.016	1.352	0.0047296
10.064	1.351	0.0026909
10.112	1.348	0.0013395
10.160	1.345	0.0026577
10.208	1.344	0.0059061
10.256	1.344	0.0104393
10.304	1.351	0.0134699
10.352	1.358	0.0103682
10.400	1.357	0.0040921
10.448	1.355	0.0025413
10.496	1.353	0.0014491
10.560	1.352	0.0020222
10.608	1.352	0.0017253
10.656	1.351	0.0015378
10.704	1.351	0.0015788
10.752	1.351	0.0010738
10.800	1.350	0.0015617
10.848	1.350	0.0019144
10.896	1.350	0.0025241
10.944	1.350	0.0030549
10.992	1.351	0.0031691
11.040	1.352	0.0026839
11.088	1.352	0.0016086
11.136	1.351	0.0012166
11.200	1.351	0.0011377
11.264	1.351	0.0008785
11.312	1.351	0.0006084
11.360	1.351	0.0005051
11.408	1.350	0.0004014
11.472	1.350	0.0003365
11.536	1.350	0.0002755
11.696	1.349	0.0002230
11.792	1.349	0.0001880
11.888	1.349	0.0001993
11.984	1.348	0.0002765
12.080	1.348	0.0003621
12.160	1.348	0.0003576
12.224	1.347	0.0004832
12.288	1.347	0.0007259
12.352	1.347	0.0009230
12.416	1.346	0.0014993
12.464	1.346	0.0021328
12.512	1.346	0.0028504
12.560	1.346	0.0042730
12.608	1.348	0.0042827
12.672	1.348	0.0038851
12.720	1.348	0.0031389
12.768	1.347	0.0032088
12.816	1.347	0.0048570
12.880	1.349	0.0043707
13.024	1.348	0.0037782
13.072	1.348	0.0068701
13.136	1.352	0.0060008
13.200	1.352	0.0051813
13.264	1.353	0.0045806
13.312	1.354	0.0034685
13.360	1.353	0.0022816
13.408	1.353	0.0017471
13.456	1.352	0.0012037
13.504	1.352	0.0009820
13.568	1.352	0.0007756
13.632	1.351	0.0006027
13.696	1.351	0.0004785
13.760	1.351	0.0003617
13.856	1.351	0.0002869
13.936	1.350	0.0001751
14.000	1.350	0.0001739
14.706	1.349	0.0001827
