Material: glass / barberini / D0290
Optical constants. Barberini D0290 glass specifications, 2010-06
Comments: 20 Â°CNormal Crown Glass (Uni/Bifocal); Colour: clear; Application: High index glass for corrective lenses
wavelength (um)	n
0.43583	1.6181
0.47999	1.6111
0.48613	1.6103
0.54607	1.6040
0.58756	1.6008
0.58929	1.6007
0.64385	1.5974
0.65627	1.5967
