Material: glass / barberini / D0587
Optical constants. Barberini D0587 glass specifications, 2011-01
Comments: 20 Â°CPhotochromic Glass; Colour: clear; Application: Lower segment glass for photochromic ophthalmic crown glass
wavelength (um)	n
0.43583	1.6031
0.47999	1.5965
0.48613	1.5958
0.54607	1.5898
0.58756	1.5867
0.58929	1.5866
0.64385	1.5835
0.65627	1.5829
