Material: glass / barberini / D0687
Optical constants. Barberini D0587 glass specifications, 2011-01
Comments: 20 Â°CPhotochromic Glass; Colour: clear; Application: Lower segment glass for photochromic ophthalmic crown glass
wavelength (um)	n
0.43583	1.6779
0.47999	1.6684
0.48613	1.6673
0.54607	1.6588
0.58756	1.6545
0.58929	1.6543
0.64385	1.6500
0.65627	1.6492
