Material: glass / barberini / D0785
Optical constants. Barberini D0785 glass specifications, 2010-08
Comments: 20 Â°CHigh Index Glass; Colour: clear; Application: High index light weight glass for corrective lenses with very high power
wavelength (um)	n
0.43583	1.8239
0.47999	1.8120
0.48613	1.8107
0.54607	1.8000
0.58756	1.7946
0.58929	1.7944
0.64385	1.7890
0.65627	1.7880
