Material: glass / barberini / D1125
Optical constants. Barberini D1125 glass specifications, 2010-08
Comments: 20 °CPhotochromic Glass; Colour: grey; Application: High index glass sensitive to light for corrective lenses and sun glare filter; luminous transmittance range 87% (τ0) / 25% (τ1) or filter categories 0 / 2 respectively
wavelength (um)	n
0.43583	1.6185
0.47999	1.6113
0.48613	1.6104
0.54607	1.6040
0.58756	1.6007
0.58929	1.6006
0.64385	1.5972
0.65627	1.5965
