Material: glass / barberini / D1230
Optical constants. Barberini D1230 glass specifications, 2010-09
Comments: 20 Â°CSun Protection Glass; Colour: grey; Application: medium tinted sunglare filter with UV-absorption filter category 2 acc. to DIN EN 1836
wavelength (um)	n
0.43583	1.5504
0.47999	1.5381
0.48613	1.5376
0.54607	1.5331
0.58756	1.5307
0.58929	1.5306
0.64385	1.5282
0.65627	1.5278
