Material: glass / barberini / D1420_1
Optical constants. Barberini D1420 1 glass specifications, 2010-08
Comments: 20 °CSun Protection Glass; Colour: grey; Application: Neutral Crown Shade C medium tinted sunglare filter with IR- and UV-absorption filter category 2 acc. to DIN EN 1836 (for τv < 18% filter category 3)
wavelength (um)	n
0.43583	1.5354
0.47999	1.5305
0.48613	1.5300
0.54607	1.5255
0.58756	1.5232
0.58929	1.5231
0.64385	1.5207
0.65627	1.5202
