Material: glass / barberini / D1616
Optical constants. Barberini D1616 glass specifications, 2010-05
Comments: 20 °CSun Protection Glass; Colour: greyish-green; Application: dark tinted sunglare filter with high UV- absorption filter category 3 acc. to DIN EN 1836 (for τv > 18 % filter category 2)
wavelength (um)	n
0.43583	1.5355
0.47999	1.5304
0.48613	1.5298
0.54607	1.5251
0.58756	1.5227
0.58929	1.5226
0.64385	1.5201
0.65627	1.5196
