Material: glass / barberini / D6420
Optical constants. Barberini D6420 glass specifications, 2010-08
Comments: 20 °CSun Protection Glass; Colour: brown; Application: medium tinted sunglare filter with high UV- and IR- absorption filter category 2 acc. to DIN EN 1836 (for τv > 18% filter category 3)
wavelength (um)	n
0.43583	1.5356
0.47999	1.5305
0.48613	1.5298
0.54607	1.5251
0.58756	1.5226
0.58929	1.5225
0.64385	1.5200
0.65627	1.5195
