Material: organic / C8H18 - octane / Anderson
Optical constants. M. R. Anderson. Determination of infrared optical constatns for single components hydrocarbon fuels, Master Thesis (2009) [pdf]
Comments: Iso-octane
wavelength (um)	n	k
2.006	1.380	0.0000280
2.023	1.380	0.0000283
2.040	1.380	0.0000292
2.057	1.380	0.0000295
2.075	1.379	0.0000305
2.092	1.379	0.0000322
2.109	1.379	0.0000340
2.126	1.379	0.0000351
2.144	1.379	0.0000377
2.161	1.379	0.0000412
2.178	1.379	0.0000472
2.195	1.379	0.0000535
2.213	1.379	0.0000567
2.230	1.379	0.0000779
2.247	1.379	0.0001660
2.264	1.378	0.0003146
2.282	1.378	0.0005410
2.299	1.378	0.0006259
2.316	1.379	0.0007975
2.333	1.379	0.0007057
2.351	1.379	0.0006490
2.368	1.379	0.0006192
2.385	1.379	0.0005789
2.402	1.379	0.0006451
2.420	1.379	0.0006167
2.437	1.379	0.0005405
2.454	1.378	0.0005013
2.471	1.378	0.0004856
2.489	1.378	0.0003575
2.506	1.378	0.0002678
2.523	1.378	0.0002569
2.541	1.378	0.0002444
2.558	1.378	0.0002734
2.568	1.378	0.0003768
2.584	1.378	0.0004050
2.608	1.378	0.0003655
2.632	1.378	0.0003418
2.656	1.377	0.0002880
2.680	1.377	0.0002112
2.704	1.377	0.0001513
2.728	1.377	0.0001107
2.752	1.377	0.0000751
2.776	1.376	0.0000522
2.800	1.376	0.0000417
2.824	1.376	0.0000414
2.848	1.375	0.0000554
2.872	1.375	0.0000888
2.896	1.375	0.0001390
2.920	1.374	0.0001936
2.944	1.374	0.0002885
2.968	1.373	0.0004009
2.992	1.373	0.0004653
3.016	1.373	0.0004879
3.040	1.372	0.0005170
3.064	1.371	0.0005872
3.088	1.371	0.0007692
3.112	1.370	0.0006926
3.136	1.369	0.0008797
3.160	1.368	0.0008988
3.184	1.367	0.0007716
3.208	1.365	0.0005862
3.232	1.363	0.0004977
3.256	1.360	0.0005476
3.280	1.355	0.0007547
3.304	1.348	0.0013042
3.328	1.334	0.0146084
3.352	1.333	0.0241032
3.376	1.329	0.0443424
3.400	1.352	0.0819100
3.424	1.384	0.0721545
3.448	1.396	0.0633233
3.472	1.407	0.0617022
3.496	1.420	0.0475135
3.520	1.423	0.0328769
3.544	1.419	0.0221011
3.568	1.415	0.0166773
3.592	1.419	0.0148163
3.616	1.408	0.0026244
3.640	1.403	0.0023848
3.664	1.400	0.0024920
3.688	1.399	0.0026201
3.712	1.397	0.0021615
3.736	1.396	0.0015925
3.760	1.395	0.0012581
3.784	1.394	0.0011802
3.808	1.393	0.0011915
3.832	1.392	0.0011534
3.856	1.392	0.0010777
3.880	1.391	0.0009606
3.904	1.391	0.0007570
3.928	1.390	0.0005339
3.952	1.390	0.0003775
3.976	1.389	0.0003133
4.000	1.389	0.0003298
4.024	1.388	0.0003876
4.048	1.388	0.0004341
4.072	1.388	0.0004328
4.096	1.387	0.0003812
4.120	1.387	0.0003611
4.144	1.387	0.0004480
4.168	1.387	0.0005548
4.192	1.387	0.0005713
4.216	1.386	0.0005334
4.240	1.386	0.0004344
4.264	1.386	0.0003300
4.288	1.386	0.0002956
4.312	1.386	0.0003003
4.336	1.385	0.0003455
4.360	1.385	0.0004540
4.384	1.385	0.0005153
4.408	1.385	0.0004482
4.432	1.385	0.0003486
4.456	1.385	0.0002694
4.480	1.385	0.0002249
4.504	1.385	0.0002426
4.528	1.385	0.0003016
4.552	1.384	0.0003380
4.576	1.384	0.0003076
4.600	1.384	0.0002608
4.624	1.384	0.0002217
4.648	1.384	0.0001968
4.672	1.384	0.0001849
4.696	1.384	0.0002008
4.720	1.384	0.0002401
4.744	1.384	0.0002994
4.768	1.384	0.0002966
4.792	1.384	0.0002146
4.816	1.383	0.0001410
4.840	1.383	0.0001077
4.864	1.383	0.0001057
4.888	1.383	0.0001243
4.912	1.383	0.0001768
4.936	1.383	0.0002350
4.960	1.383	0.0002184
4.984	1.383	0.0001688
5.008	1.383	0.0001681
5.032	1.383	0.0002096
5.056	1.383	0.0001943
5.080	1.382	0.0001647
5.104	1.382	0.0001927
5.128	1.382	0.0002408
5.152	1.382	0.0002422
5.176	1.382	0.0001985
5.200	1.382	0.0001710
5.224	1.382	0.0001674
5.248	1.382	0.0001949
5.272	1.382	0.0002290
5.296	1.382	0.0002608
5.320	1.381	0.0002745
5.344	1.381	0.0002872
5.368	1.381	0.0002841
5.392	1.381	0.0003193
5.424	1.381	0.0003465
5.472	1.381	0.0002974
5.520	1.381	0.0002920
5.568	1.381	0.0003600
5.616	1.380	0.0003210
5.680	1.380	0.0003794
5.728	1.380	0.0004691
5.776	1.379	0.0006172
5.840	1.379	0.0007675
5.904	1.379	0.0008249
5.968	1.379	0.0008185
6.048	1.378	0.0007891
6.096	1.378	0.0006865
6.144	1.377	0.0005862
6.224	1.376	0.0005746
6.304	1.375	0.0006503
6.352	1.374	0.0007352
6.400	1.373	0.0008213
6.448	1.372	0.0009086
6.496	1.371	0.0009971
6.544	1.369	0.0010868
6.592	1.366	0.0015070
6.640	1.362	0.0032314
6.688	1.356	0.0041391
6.736	1.344	0.0168350
6.784	1.347	0.0421735
6.832	1.382	0.0611223
6.880	1.400	0.0361718
6.928	1.399	0.0238135
6.976	1.395	0.0171433
7.024	1.393	0.0142910
7.072	1.389	0.0110262
7.120	1.385	0.0107545
7.168	1.379	0.0139717
7.216	1.384	0.0229446
7.264	1.387	0.0172729
7.312	1.375	0.0260303
7.360	1.410	0.0432428
7.408	1.412	0.0176247
7.456	1.407	0.0062688
7.520	1.400	0.0039765
7.568	1.398	0.0031902
7.616	1.396	0.0017010
7.664	1.392	0.0010951
7.712	1.390	0.0026384
7.760	1.390	0.0037029
7.808	1.391	0.0044449
7.856	1.391	0.0028792
7.904	1.388	0.0021702
7.952	1.386	0.0034809
8.000	1.385	0.0062615
8.048	1.391	0.0116690
8.096	1.392	0.0047362
8.160	1.389	0.0035514
8.208	1.388	0.0033087
8.256	1.384	0.0050504
8.304	1.385	0.0128873
8.352	1.394	0.0124237
8.400	1.396	0.0064376
8.448	1.394	0.0032518
8.496	1.391	0.0020914
8.544	1.387	0.0051742
8.592	1.393	0.0099976
8.640	1.395	0.0050028
8.688	1.394	0.0020705
8.736	1.392	0.0014328
8.784	1.392	0.0011899
8.832	1.391	0.0011317
8.880	1.390	0.0011378
8.928	1.390	0.0012592
8.976	1.389	0.0014196
9.024	1.389	0.0015428
9.072	1.389	0.0018353
9.152	1.390	0.0021383
9.200	1.390	0.0011782
9.248	1.389	0.0009187
9.296	1.389	0.0007679
9.344	1.389	0.0005857
9.424	1.388	0.0005307
9.504	1.388	0.0004908
9.568	1.387	0.0005440
9.616	1.387	0.0006608
9.664	1.387	0.0006897
9.712	1.387	0.0007477
9.760	1.386	0.0010046
9.808	1.386	0.0012638
9.856	1.386	0.0015182
9.904	1.386	0.0013140
9.968	1.386	0.0011754
10.032	1.384	0.0019342
10.080	1.384	0.0035305
10.144	1.385	0.0042329
10.224	1.386	0.0049505
10.320	1.389	0.0091969
10.368	1.390	0.0031713
10.416	1.389	0.0021792
10.480	1.388	0.0020676
10.544	1.387	0.0020345
10.592	1.387	0.0020379
10.640	1.387	0.0021582
10.688	1.386	0.0026245
10.736	1.385	0.0035195
10.784	1.386	0.0058269
10.832	1.387	0.0078318
10.880	1.389	0.0059439
10.944	1.391	0.0039736
10.992	1.391	0.0028094
11.040	1.390	0.0021718
11.088	1.390	0.0019001
11.136	1.390	0.0016334
11.184	1.389	0.0013133
11.232	1.389	0.0010650
11.280	1.389	0.0009116
11.328	1.388	0.0008063
11.376	1.388	0.0008681
11.424	1.388	0.0009696
11.472	1.387	0.0011776
11.520	1.387	0.0015131
11.568	1.387	0.0020803
11.632	1.388	0.0023778
11.680	1.388	0.0019760
11.728	1.388	0.0014772
11.776	1.388	0.0012213
11.824	1.388	0.0010764
11.872	1.388	0.0010656
11.936	1.387	0.0012879
11.984	1.387	0.0017432
12.032	1.387	0.0022123
12.080	1.387	0.0028265
12.128	1.388	0.0029570
12.208	1.389	0.0027545
12.256	1.389	0.0021383
12.304	1.389	0.0016648
12.352	1.389	0.0011499
12.400	1.389	0.0007056
12.448	1.389	0.0004832
12.528	1.389	0.0002849
12.640	1.388	0.0002125
12.736	1.388	0.0001361
12.960	1.388	0.0001297
13.056	1.387	0.0001105
13.200	1.387	0.0001315
13.264	1.387	0.0002239
13.312	1.387	0.0003578
13.360	1.386	0.0007491
13.408	1.386	0.0013022
13.472	1.388	0.0019200
13.520	1.388	0.0010401
13.568	1.388	0.0004911
13.632	1.388	0.0003444
13.680	1.388	0.0002120
13.728	1.388	0.0002022
13.824	1.387	0.0001273
13.936	1.387	0.0001284
13.984	1.387	0.0001288
14.391	1.387	0.0001632
15.059	1.387	0.0001761
15.518	1.387	0.0002090
16.093	1.386	0.0002110
16.593	1.386	0.0002295
16.965	1.386	0.0002530
17.577	1.386	0.0002431
17.706	1.386	0.0002259
18.023	1.386	0.0002107
18.581	1.386	0.0002370
18.709	1.386	0.0002655
19.824	1.386	0.0004915
21.081	1.385	0.0007931
22.512	1.387	0.0013305
