Material: main / C / Hagemann
Optical constants. 1) H.-J. Hagemann, W. Gudat, and C. Kunz. Optical constants from the far infrared to the x-ray region: Mg, Al, Cu, Ag, Au, Bi, C, and Al2O3, J. Opt. Soc. Am. 65, 742-744 (1975)2) H.-J. Hagemann, W. Gudat, and C. Kunz. DESY report SR-74/7 (1974)
wavelength (um)	n	k
4.133E-05	1.000E+00	3.29E-11
6.199E-05	1.000E+00	2.17E-10
8.266E-05	1.000E+00	7.20E-10
1.378E-04	1.000E+00	5.00E-09
1.771E-04	1.000E+00	1.34E-08
2.480E-04	1.000E+00	5.38E-08
4.133E-04	1.000E+00	4.48E-07
6.199E-04	1.000E+00	2.41E-06
8.266E-04	1.000E+00	8.62E-06
1.240E-03	1.000E+00	4.22E-05
1.550E-03	9.990E-01	9.85E-05
2.066E-03	9.990E-01	3.32E-04
2.480E-03	9.990E-01	5.69E-04
2.755E-03	9.980E-01	8.39E-04
3.542E-03	9.980E-01	2.13E-03
3.647E-03	9.980E-01	2.36E-03
3.757E-03	9.980E-01	2.77E-03
3.875E-03	9.980E-01	3.68E-03
3.999E-03	9.990E-01	4.97E-03
4.133E-03	1.002E+00	3.54E-03
4.275E-03	1.001E+00	7.94E-04
4.592E-03	9.990E-01	2.06E-04
4.959E-03	9.980E-01	2.72E-04
6.199E-03	9.950E-01	5.85E-04
6.888E-03	9.940E-01	8.48E-04
7.749E-03	9.920E-01	1.21E-03
8.856E-03	9.890E-01	1.93E-03
9.537E-03	9.870E-01	2.35E-03
1.033E-02	9.850E-01	2.82E-03
1.127E-02	9.820E-01	3.77E-03
1.240E-02	9.780E-01	5.19E-03
1.305E-02	9.760E-01	6.13E-03
1.378E-02	9.730E-01	7.25E-03
1.459E-02	9.700E-01	8.58E-03
1.550E-02	9.660E-01	1.02E-02
1.653E-02	9.610E-01	1.21E-02
1.771E-02	9.550E-01	1.50E-02
1.907E-02	9.480E-01	2.00E-02
2.066E-02	9.400E-01	2.70E-02
2.254E-02	9.320E-01	3.50E-02
2.480E-02	9.220E-01	4.50E-02
2.695E-02	9.140E-01	5.80E-02
2.818E-02	9.110E-01	6.30E-02
2.952E-02	9.040E-01	6.50E-02
3.100E-02	8.930E-01	7.30E-02
3.263E-02	8.830E-01	8.60E-02
3.444E-02	8.790E-01	1.02E-01
3.647E-02	8.730E-01	1.09E-01
3.875E-02	8.570E-01	1.18E-01
4.133E-02	8.370E-01	1.40E-01
4.428E-02	8.160E-01	1.66E-01
4.769E-02	7.940E-01	2.07E-01
5.166E-02	7.720E-01	2.55E-01
5.636E-02	7.350E-01	3.14E-01
6.199E-02	7.070E-01	4.51E-01
6.888E-02	7.330E-01	6.31E-01
7.749E-02	9.080E-01	9.03E-01
7.999E-02	1.005E+00	9.38E-01
8.266E-02	1.099E+00	9.55E-01
8.551E-02	1.191E+00	9.60E-01
8.856E-02	1.284E+00	9.56E-01
9.184E-02	1.378E+00	9.34E-01
9.537E-02	1.463E+00	8.94E-01
9.919E-02	1.542E+00	8.51E-01
1.033E-01	1.608E+00	7.86E-01
1.078E-01	1.663E+00	7.30E-01
1.127E-01	1.723E+00	6.69E-01
1.181E-01	1.785E+00	5.82E-01
1.240E-01	1.811E+00	4.49E-01
1.305E-01	1.791E+00	3.34E-01
1.378E-01	1.736E+00	2.23E-01
1.459E-01	1.649E+00	1.44E-01
1.550E-01	1.531E+00	8.69E-02
1.653E-01	1.399E+00	1.01E-01
1.771E-01	1.280E+00	1.58E-01
1.907E-01	1.196E+00	2.80E-01
2.066E-01	1.158E+00	4.15E-01
2.254E-01	1.195E+00	6.10E-01
2.480E-01	1.344E+00	7.54E-01
2.755E-01	1.518E+00	7.64E-01
3.100E-01	1.638E+00	7.23E-01
3.542E-01	1.706E+00	6.81E-01
4.133E-01	1.752E+00	6.78E-01
4.959E-01	1.807E+00	6.96E-01
6.199E-01	1.879E+00	7.39E-01
8.266E-01	1.974E+00	8.16E-01
1.240E+00	2.204E+00	1.04E+00
2.480E+00	2.698E+00	1.18E+00
3.100E+00	2.831E+00	1.22E+00
4.133E+00	2.949E+00	1.29E+00
6.199E+00	3.000E+00	1.51E+00
1.240E+01	2.870E+00	2.79E+00
1.550E+01	2.932E+00	3.56E+00
2.066E+01	3.159E+00	4.65E+00
3.100E+01	3.472E+00	6.86E+00
4.133E+01	4.054E+00	9.31E+00
4.959E+01	4.997E+00	1.12E+01
6.199E+01	7.115E+00	1.24E+01
8.266E+01	7.489E+00	1.31E+01
1.240E+02	5.303E+00	1.92E+01
