Material: main / C / Weber
Optical constants. J. W. Weber, V. E. Calado and M. C. M. van de Sanden. Optical constants of graphene measured by spectroscopic ellipsometry, Appl. Phys. Lett. 97, 091904 (2010) (Numerical data kindly provided by Jan-Willem Weber)
Comments: Graphene (mechanically exfoliated flake). Thickness: 3.4 Ã…. Substrate: silicon with 98-nm silicon oxide layer.
wavelength (um)	n	k
0.210873	1.375211	0.376681
0.214049	1.093820	0.480830
0.217225	0.867752	0.701942
0.220401	0.767137	0.968274
0.223577	0.756332	1.197726
0.226754	0.782927	1.379911
0.229931	0.819756	1.526077
0.233108	0.851791	1.651104
0.236285	0.877507	1.773811
0.239463	0.905741	1.903026
0.242640	0.944492	2.040100
0.245819	0.999672	2.182960
0.248997	1.075284	2.327990
0.252175	1.174059	2.470928
0.255354	1.298372	2.606847
0.258533	1.450405	2.727209
0.261712	1.623904	2.821718
0.264891	1.810047	2.887396
0.268071	2.002100	2.924291
0.271251	2.194901	2.933475
0.274430	2.384315	2.916352
0.277611	2.566801	2.874388
0.280791	2.739040	2.809038
0.283971	2.897544	2.721785
0.287152	3.037802	2.614610
0.290333	3.155035	2.493192
0.293514	3.249283	2.364140
0.296695	3.322008	2.231713
0.299876	3.374787	2.098996
0.303058	3.409157	1.968416
0.306239	3.426604	1.841991
0.309421	3.428580	1.721478
0.312603	3.416545	1.608474
0.315785	3.392035	1.504485
0.318967	3.356748	1.410955
0.322149	3.312693	1.329278
0.325332	3.262518	1.260723
0.328514	3.209916	1.205269
0.331697	3.157339	1.161154
0.334879	3.106097	1.126846
0.338062	3.057103	1.101043
0.341245	3.011024	1.082577
0.344428	2.968344	1.070372
0.347611	2.929399	1.063422
0.350795	2.894394	1.060785
0.353978	2.863415	1.061579
0.357161	2.836441	1.064984
0.360345	2.813356	1.070246
0.363528	2.793955	1.076682
0.366712	2.777954	1.083684
0.369896	2.764999	1.090721
0.373079	2.754663	1.097346
0.376263	2.746420	1.103208
0.379447	2.739641	1.108219
0.382631	2.733927	1.112533
0.385815	2.729043	1.116271
0.388999	2.724823	1.119531
0.392183	2.721140	1.122391
0.395367	2.717896	1.124918
0.398551	2.715013	1.127167
0.401735	2.712428	1.129187
0.404919	2.710090	1.131021
0.408103	2.707959	1.132705
0.411287	2.706001	1.134272
0.414471	2.704189	1.135749
0.417655	2.702499	1.137161
0.420839	2.700915	1.138531
0.424023	2.699420	1.139877
0.427207	2.698004	1.141217
0.430392	2.696655	1.142564
0.433576	2.695367	1.143934
0.436760	2.694134	1.145336
0.439944	2.692950	1.146780
0.443127	2.691813	1.148277
0.446311	2.690720	1.149833
0.449495	2.689670	1.151454
0.452679	2.688662	1.153146
0.455863	2.687694	1.154912
0.459046	2.686767	1.156758
0.462230	2.685882	1.158685
0.465414	2.685038	1.160697
0.468597	2.684237	1.162796
0.471781	2.683479	1.164983
0.474964	2.682765	1.167259
0.478147	2.682098	1.169624
0.481330	2.681478	1.172081
0.484513	2.680906	1.174627
0.487696	2.680385	1.177264
0.490879	2.679917	1.179991
0.494062	2.679502	1.182807
0.497245	2.679142	1.185710
0.500427	2.678840	1.188701
0.503610	2.678596	1.191777
0.506792	2.678414	1.194938
0.509974	2.678293	1.198181
0.513157	2.678237	1.201505
0.516339	2.678246	1.204907
0.519520	2.678323	1.208386
0.522702	2.678468	1.211941
0.525883	2.678684	1.215567
0.529065	2.678972	1.219264
0.532246	2.679335	1.223028
0.535427	2.679773	1.226858
0.538608	2.680290	1.230750
0.541789	2.680885	1.234702
0.544969	2.681563	1.238711
0.548150	2.682326	1.242773
0.551330	2.683177	1.246882
0.554510	2.684117	1.251031
0.557690	2.685144	1.255216
0.560869	2.686258	1.259430
0.564049	2.687457	1.263669
0.567228	2.688739	1.267928
0.570407	2.690104	1.272204
0.573586	2.691548	1.276493
0.576765	2.693070	1.280792
0.579943	2.694667	1.285096
0.583121	2.696337	1.289404
0.586299	2.698079	1.293712
0.589477	2.699889	1.298017
0.592654	2.701765	1.302318
0.595831	2.703705	1.306612
0.599008	2.705707	1.310897
0.602185	2.707767	1.315171
0.605362	2.709885	1.319433
0.608538	2.712056	1.323680
0.611714	2.714280	1.327912
0.614890	2.716553	1.332126
0.618065	2.718874	1.336322
0.621240	2.721240	1.340499
0.624415	2.723648	1.344655
0.627590	2.726097	1.348790
0.630764	2.728585	1.352903
0.633938	2.731108	1.356993
0.637112	2.733666	1.361060
0.640285	2.736255	1.365102
0.643458	2.738874	1.369119
0.646631	2.741521	1.373112
0.649804	2.744194	1.377079
0.652976	2.746890	1.381021
0.656148	2.749607	1.384937
0.659319	2.752344	1.388827
0.662490	2.755099	1.392691
0.665661	2.757869	1.396530
0.668832	2.760652	1.400342
0.672002	2.763448	1.404128
0.675172	2.766252	1.407888
0.678341	2.769065	1.411624
0.681510	2.771883	1.415334
0.684679	2.774705	1.419019
0.687848	2.777528	1.422679
0.691016	2.780350	1.426316
0.694183	2.783170	1.429930
0.697350	2.785985	1.433521
0.700517	2.788792	1.437090
0.703684	2.791589	1.440638
0.706850	2.794372	1.444167
0.710016	2.797137	1.447680
0.713181	2.799883	1.451182
0.716346	2.802609	1.454676
0.719511	2.805315	1.458166
0.722675	2.808001	1.461655
0.725839	2.810668	1.465146
0.729002	2.813317	1.468642
0.732165	2.815949	1.472144
0.735327	2.818565	1.475656
0.738489	2.821166	1.479178
0.741651	2.823754	1.482713
0.744812	2.826329	1.486261
0.747972	2.828893	1.489825
0.751133	2.831447	1.493405
0.754292	2.833993	1.497003
0.757452	2.836532	1.500619
0.760611	2.839066	1.504254
0.763769	2.841595	1.507909
0.766927	2.844121	1.511585
0.770084	2.846646	1.515282
0.773241	2.849170	1.519001
0.776398	2.851695	1.522741
0.779554	2.854223	1.526504
0.782709	2.856754	1.530289
0.785864	2.859289	1.534096
0.789019	2.861831	1.537926
0.792173	2.864380	1.541778
0.795326	2.866937	1.545653
0.798479	2.869504	1.549551
0.801632	2.872081	1.553470
0.804784	2.874670	1.557412
0.807935	2.877271	1.561375
0.811086	2.879886	1.565361
0.814236	2.882515	1.569367
0.817386	2.885160	1.573394
0.820536	2.887821	1.577442
0.823684	2.890500	1.581510
0.826832	2.893197	1.585598
0.829980	2.895912	1.589705
0.833127	2.898648	1.593832
0.836274	2.901404	1.597976
0.839419	2.904181	1.602138
0.842565	2.906980	1.606318
0.845710	2.909802	1.610515
0.848854	2.912647	1.614727
0.851997	2.915516	1.618956
0.855140	2.918409	1.623199
0.858283	2.921328	1.627457
0.861425	2.924272	1.631729
0.864566	2.927243	1.636015
0.867706	2.930239	1.640313
0.870846	2.933264	1.644623
0.873986	2.936315	1.648944
0.877125	2.939395	1.653277
0.880263	2.942503	1.657620
0.883400	2.945641	1.661972
0.886537	2.948807	1.666333
0.889673	2.952003	1.670702
0.892809	2.955228	1.675080
0.895944	2.958484	1.679464
0.899078	2.961771	1.683855
0.902212	2.965088	1.688251
0.905345	2.968436	1.692652
0.908477	2.971816	1.697058
0.911609	2.975227	1.701468
0.914740	2.978670	1.705881
0.917870	2.982145	1.710297
0.921000	2.985652	1.714715
0.924129	2.989191	1.719133
0.927257	2.992763	1.723553
0.930384	2.996368	1.727973
0.933511	3.000005	1.732392
0.936637	3.003676	1.736810
0.939763	3.007380	1.741227
0.942888	3.011117	1.745640
0.946012	3.014888	1.750051
0.949135	3.018692	1.754459
0.952258	3.022530	1.758862
0.955379	3.026402	1.763261
0.958501	3.030307	1.767654
0.961621	3.034247	1.772041
0.964741	3.038220	1.776422
0.967859	3.042228	1.780795
0.970978	3.046271	1.785161
0.974095	3.050348	1.789519
0.977212	3.054460	1.793867
0.980328	3.058607	1.798206
0.983443	3.062789	1.802535
0.986557	3.067006	1.806853
0.989671	3.071259	1.811159
0.992784	3.075548	1.815454
0.995896	3.079873	1.819735
0.999007	3.084235	1.824003
