Material: schott / misc / B270
Optical constants. B 270 datasheet, August 1993
Comments: 20 Â°C. Clear high transmission crown glass (modified soda-lime glass) available in form of sheets, profile rods strips and blanks
wavelength (um)	n
0.43583	1.5341
0.47999	1.5297
0.48613	1.5292
0.54607	1.5251
0.58756	1.5230
0.58929	1.5229
0.64385	1.5207
0.65627	1.5203
