Material: organic / C7H8 - toluene / Kedenburg
Optical constants. S. Kedenburg, M. Vieweg, T. Gissibl, and H. Giessen. Linear refractive index and absorption measurements of nonlinear optical liquids in the visible and near-infrared spectral region, Opt. Mat. Express 2, 1588-1611 (2012)
Comments: 20 Â°C.
Dispersion formula 2, range 0.5 1.6 um, coefficients 0 1.17477 0.01825
wavelength (um)	k
0.5	1.38863e-08
0.503	1.35693e-08
0.506	1.28449e-08
0.509	1.2678e-08
0.512	1.19379e-08
0.515	1.1598e-08
0.518	1.10473e-08
0.521	1.07381e-08
0.524	1.10084e-08
0.527	1.05263e-08
0.53	1.07549e-08
0.533	9.88265e-09
0.536	9.725e-09
0.539	8.8358e-09
0.542	8.23802e-09
0.545	7.93666e-09
0.548	8.41643e-09
0.551	7.41017e-09
0.554	7.23009e-09
0.557	7.18059e-09
0.56	6.63994e-09
0.563	8.10918e-09
0.566	7.16149e-09
0.569	7.01834e-09
0.572	6.91878e-09
0.575	7.68718e-09
0.578	6.94536e-09
0.581	7.07388e-09
0.584	6.45978e-09
0.587	6.67981e-09
0.59	7.23041e-09
0.593	6.74809e-09
0.596	7.9205e-09
0.599	9.00905e-09
0.602	1.43238e-08
0.605	1.59839e-08
0.608	1.68857e-08
0.611	1.57049e-08
0.614	1.31924e-08
0.617	1.19802e-08
0.62	1.12491e-08
0.623	1.15514e-08
0.626	1.20055e-08
0.629	1.16126e-08
0.632	1.25732e-08
0.635	1.18749e-08
0.638	1.26418e-08
0.641	1.29563e-08
0.644	1.14283e-08
0.647	1.13785e-08
0.65	1.00864e-08
0.653	9.56139e-09
0.656	9.76193e-09
0.659	1.03834e-08
0.662	1.14843e-08
0.665	1.28593e-08
0.668	1.45652e-08
0.671	1.54316e-08
0.674	1.3677e-08
0.677	1.23371e-08
0.68	1.03896e-08
0.683	9.45715e-09
0.686	7.64262e-09
0.689	8.38882e-09
0.692	9.47163e-09
0.695	9.29147e-09
0.698	1.02758e-08
0.701	1.32765e-08
0.704	1.7423e-08
0.707	2.57114e-08
0.71	3.7516e-08
0.713	4.93627e-08
0.716	5.0482e-08
0.719	3.91359e-08
0.722	2.37863e-08
0.725	1.55773e-08
0.728	1.18182e-08
0.731	1.21578e-08
0.734	1.53034e-08
0.737	1.94713e-08
0.74	2.3496e-08
0.743	2.39461e-08
0.746	2.3271e-08
0.749	2.27089e-08
0.752	1.96881e-08
0.755	1.49602e-08
0.758	1.1702e-08
0.761	9.74991e-09
0.764	7.47805e-09
0.767	7.08017e-09
0.77	6.43384e-09
0.773	8.24279e-09
0.776	8.95406e-09
0.779	9.17465e-09
0.782	8.96106e-09
0.785	9.86999e-09
0.788	1.01585e-08
0.791	1.15191e-08
0.794	1.33319e-08
0.797	1.42068e-08
0.8	1.57882e-08
0.803	1.74449e-08
0.806	1.93701e-08
0.809	1.87984e-08
0.812	1.78989e-08
0.815	1.63436e-08
0.818	1.59481e-08
0.821	1.58106e-08
0.824	1.58684e-08
0.827	1.61236e-08
0.83	1.69747e-08
0.833	1.81629e-08
0.836	2.11555e-08
0.839	2.08976e-08
0.842	2.25804e-08
0.845	2.55523e-08
0.848	3.27286e-08
0.851	4.19189e-08
0.854	5.63381e-08
0.857	7.84276e-08
0.86	1.12236e-07
0.863	1.71002e-07
0.866	2.66008e-07
0.869	3.97629e-07
0.872	5.48193e-07
0.875	6.42688e-07
0.878	5.869e-07
0.881	4.36771e-07
0.884	2.87717e-07
0.887	1.82816e-07
0.89	1.31733e-07
0.893	1.23649e-07
0.896	1.36899e-07
0.899	1.65973e-07
0.902	2.13901e-07
0.905	2.66465e-07
0.908	2.96974e-07
0.911	3.05204e-07
0.914	3.033e-07
0.917	2.83133e-07
0.92	2.23294e-07
0.923	1.51307e-07
0.926	1.00217e-07
0.929	7.46667e-08
0.932	6.77137e-08
0.935	6.39882e-08
0.938	5.18773e-08
0.941	3.92384e-08
0.944	3.29031e-08
0.947	3.04454e-08
0.95	2.72155e-08
0.953	2.60122e-08
0.956	2.84524e-08
0.959	3.18996e-08
0.962	3.44491e-08
0.965	3.9932e-08
0.968	4.229e-08
0.971	4.60528e-08
0.974	5.66587e-08
0.977	7.10609e-08
0.98	7.87658e-08
0.983	8.29181e-08
0.986	9.25868e-08
0.989	1.14118e-07
0.992	1.38936e-07
0.995	1.63902e-07
0.998	1.77897e-07
1.001	1.80025e-07
1.004	1.8376e-07
1.007	2.0835e-07
1.01	2.50765e-07
1.013	2.76499e-07
1.016	2.8702e-07
1.019	2.903e-07
1.022	2.78956e-07
1.025	2.60198e-07
1.028	2.47871e-07
1.031	2.26442e-07
1.034	1.95834e-07
1.037	1.68345e-07
1.04	1.5559e-07
1.043	1.53549e-07
1.046	1.58985e-07
1.049	1.58606e-07
1.052	1.50688e-07
1.055	1.59513e-07
1.058	1.68386e-07
1.061	1.76462e-07
1.064	1.82888e-07
1.067	1.5878e-07
1.07	1.22613e-07
1.073	1.0161e-07
1.076	9.24754e-08
1.079	9.10159e-08
1.082	9.38521e-08
1.085	1.062e-07
1.088	1.2381e-07
1.091	1.51065e-07
1.094	1.75857e-07
1.097	1.9729e-07
1.1	2.32844e-07
1.103	2.79121e-07
1.106	3.4413e-07
1.109	4.39492e-07
1.112	5.53063e-07
1.115	7.20479e-07
1.118	9.69747e-07
1.12	1.1943e-06
1.12375	1.7885e-06
1.1275	2.7904e-06
1.13125	4.41108e-06
1.135	7.03596e-06
1.13875	1.03305e-05
1.1425	1.22738e-05
1.14625	1.17668e-05
1.15	1.00666e-05
1.15375	7.16138e-06
1.1575	4.86346e-06
1.159	4.19648e-06
1.162	3.53232e-06
1.165	3.59706e-06
1.168	3.63421e-06
1.171	3.40126e-06
1.174	3.48471e-06
1.177	3.84954e-06
1.18	4.26312e-06
1.183	4.66935e-06
1.186	5.21915e-06
1.189	5.87575e-06
1.192	6.09926e-06
1.195	5.73423e-06
1.198	4.94782e-06
1.201	3.756e-06
1.204	2.80727e-06
1.207	2.26678e-06
1.21	1.7332e-06
1.213	1.28382e-06
1.216	1.00637e-06
1.219	8.37153e-07
1.222	7.68225e-07
1.225	7.62312e-07
1.228	7.8861e-07
1.231	8.36577e-07
1.234	8.2094e-07
1.237	7.17608e-07
1.24	5.87123e-07
1.243	4.84683e-07
1.246	4.46191e-07
1.249	4.54223e-07
1.252	4.96162e-07
1.255	4.62397e-07
1.258	3.85418e-07
1.261	3.19104e-07
1.264	2.85664e-07
1.267	2.68194e-07
1.27	2.64786e-07
1.273	2.60346e-07
1.276	2.71114e-07
1.279	2.87018e-07
1.282	3.08095e-07
1.285	3.43584e-07
1.288	3.87434e-07
1.291	4.52032e-07
1.294	5.25164e-07
1.297	5.97597e-07
1.3	6.16566e-07
1.303	6.83313e-07
1.306	6.31883e-07
1.309	5.8646e-07
1.312	6.08685e-07
1.315	6.48795e-07
1.318	6.9957e-07
1.321	7.54775e-07
1.324	8.13384e-07
1.327	8.59578e-07
1.33	9.22908e-07
1.333	9.79089e-07
1.336	1.09505e-06
1.339	1.28931e-06
1.342	1.48442e-06
1.345	1.6804e-06
1.348	1.80214e-06
1.351	1.87066e-06
1.354	2.16573e-06
1.357	2.85085e-06
1.36	3.7446e-06
1.363	4.55549e-06
1.366	4.39159e-06
1.369	4.2923e-06
1.372	4.55282e-06
1.375	5.14269e-06
1.378	6.06407e-06
1.381	6.96744e-06
1.384	6.4319e-06
1.387	5.70633e-06
1.39	5.77398e-06
1.393	5.96381e-06
1.396	5.94332e-06
1.399	5.87817e-06
1.402	5.95771e-06
1.405	5.99282e-06
1.408	5.92718e-06
1.411	5.76016e-06
1.414	5.16478e-06
1.417	4.46535e-06
1.42	3.9098e-06
1.423	3.64629e-06
1.426	3.68802e-06
1.429	3.88909e-06
1.432	4.17075e-06
1.435	4.32794e-06
1.438	4.34843e-06
1.441	4.34604e-06
1.444	4.04483e-06
1.447	3.76536e-06
1.45	3.51931e-06
1.453	3.2144e-06
1.456	2.90821e-06
1.459	2.80971e-06
1.462	2.83875e-06
1.465	2.76297e-06
1.468	2.78031e-06
1.471	2.83281e-06
1.474	2.93243e-06
1.477	3.00892e-06
1.48	3.09747e-06
1.483	3.18636e-06
1.486	2.93265e-06
1.489	2.6542e-06
1.49125	2.5158e-06
1.495	2.28419e-06
1.49875	2.23029e-06
1.5025	2.16413e-06
1.50625	1.88186e-06
1.51	1.64622e-06
1.51375	1.55394e-06
1.5175	1.42495e-06
1.52125	1.29531e-06
1.525	1.22569e-06
1.52875	1.20316e-06
1.5325	1.19026e-06
1.53625	1.09904e-06
1.54	1.05638e-06
1.54375	1.05649e-06
1.5475	1.06768e-06
1.55125	1.06533e-06
1.555	1.07285e-06
1.55875	1.09156e-06
1.5625	1.11408e-06
1.56625	1.17783e-06
1.57	1.19689e-06
1.57375	1.30244e-06
1.5775	1.45619e-06
1.58125	1.6484e-06
1.585	1.75321e-06
1.58875	1.83322e-06
1.5925	1.92625e-06
1.59625	2.23565e-06
1.6	2.58468e-06
1.60375	3.0757e-06
1.6075	3.63295e-06
1.61125	4.3851e-06
1.615	5.42344e-06
1.61875	6.86589e-06
1.6225	1.01613e-05
1.62625	1.39766e-05
1.63	1.71219e-05
1.63375	2.30117e-05
1.6375	2.4107e-05
1.64125	2.62519e-05
1.645	3.10245e-05
1.64875	2.55847e-05
1.6525	2.32758e-05
1.65625	2.8996e-05
1.66	4.22716e-05
1.66375	6.71253e-05
1.6675	0.000100849
1.67125	0.000132861
1.675	0.000163949
1.67875	0.000179012
1.6825	0.000171378
1.68625	0.000147606
1.69	0.000139865
1.69375	0.000142871
1.6975	0.000129139
1.70125	0.000121572
1.705	0.000110443
1.70875	8.17228e-05
1.7125	6.0643e-05
1.71625	5.03961e-05
1.72	4.90006e-05
1.72375	5.36341e-05
1.7275	5.58129e-05
1.73125	5.48319e-05
1.735	5.26035e-05
1.73875	5.41008e-05
1.7425	5.61588e-05
1.74625	5.53069e-05
1.75	5.11086e-05
