Material: doped crystals / Al-ZnO / Treharne
Optical constants. R. E. Treharne, A. Seymour-Pierce, K. Durose, K. Hutchings, S. Roncallo, D. Lane, Optical design and fabrication of fully sputtered CdTe/CdS solar cells, J. Phys: Conf. Ser. 286, 012038, (2011) (Numerical data kindly provided Dr. Robert Treharne)
Comments: An Al doped ZnO film (approx 2% wt. Al) was deposited on to a soda-lime glass substrate using RF magnetron sputtering. The resultant film had a resistivity of 4.7x10-4 Ω·cm. A variable-angle ellipsometer was used to take amplitude and phase change measurements. The refractive index and extinction coefficient was extracted from a multi-oscillator model fit to the ellipsometry data, as a function of wavelength, from 300 to 900 nm
wavelength (um)	n	k
0.3	2.1547665652	0.1752045524
0.306	2.1549572347	0.170581898
0.312	2.1561910241	0.1647199927
0.318	2.158446236	0.1574293616
0.324	2.16105938	0.1484981389
0.33	2.1643054689	0.1375222281
0.336	2.1685395052	0.1238291323
0.342	2.1739987384	0.1061094804
0.348	2.1803794427	0.0800043307
0.354	2.1762666056	0.0324261581
0.36	2.1300612654	0.0138854141
0.366	2.1047465101	0.0050074249
0.372	2.0821139538	0.0025541363
0.378	2.0641975774	0.0019054661
0.384	2.0491530197	0.001596998
0.39	2.0361178581	0.001387943
0.396	2.0241859642	0.0012327431
0.402	2.0133105611	0.0011152876
0.408	2.0032131534	0.0010272776
0.414	1.9937798214	0.0009626579
0.42	1.9849265006	0.0009168762
0.426	1.9768356742	0.0008863653
0.432	1.9685818404	0.0008687148
0.438	1.9609022467	0.0008612975
0.444	1.9536773514	0.0008628161
0.45	1.9466138366	0.0008717527
0.456	1.9399189427	0.0008872885
0.462	1.9334766604	0.0009084247
0.468	1.927221267	0.0009346366
0.474	1.9210900671	0.0009655053
0.48	1.9151834678	0.0010005121
0.486	1.9095279854	0.0010393337
0.492	1.9039133187	0.001081845
0.498	1.8985088113	0.0011277649
0.504	1.8932200385	0.0011769998
0.51	1.8882038097	0.0012293377
0.516	1.883039348	0.0012849686
0.522	1.8779886375	0.0013436732
0.528	1.8730846934	0.0014054004
0.534	1.8682941194	0.0014701624
0.54	1.8636177184	0.0015379268
0.546	1.8588969315	0.0016088391
0.552	1.8543688708	0.0016827417
0.558	1.8498678906	0.0017597797
0.564	1.8454900418	0.0018399063
0.57	1.8411609235	0.0019232387
0.576	1.8366924803	0.0020100219
0.582	1.8324159993	0.002099967
0.588	1.8281624518	0.0021933073
0.594	1.8239261251	0.0022901209
0.6	1.8198400118	0.0023903076
0.606	1.8157046877	0.0024941797
0.612	1.8115410595	0.0026018087
0.618	1.8075202228	0.0027130204
0.624	1.8035076766	0.0028280808
0.63	1.7994856648	0.0029471068
0.636	1.7957155051	0.0030697516
0.642	1.7917462135	0.0031968478
0.648	1.78753864	0.0033286113
0.654	1.7835065266	0.0034643913
0.66	1.779506638	0.0036045407
0.666	1.7755495327	0.0037491281
0.672	1.7715617803	0.0038984123
0.678	1.7677044605	0.004052136
0.684	1.7637816066	0.0042108378
0.69	1.7598266178	0.0043745642
0.696	1.7558734096	0.0045433504
0.702	1.7519965729	0.0047171093
0.708	1.7480905649	0.004896229
0.714	1.7441861303	0.005080747
0.72	1.7402847596	0.0052707826
0.726	1.7364782449	0.0054661676
0.732	1.732595282	0.0056675534
0.738	1.7286315249	0.0058751089
0.744	1.7245962594	0.0060889622
0.75	1.7207043607	0.0063084868
0.756	1.7167630956	0.0065344912
0.762	1.7128231083	0.0067669361
0.768	1.7088557338	0.0070060734
0.774	1.7048780944	0.0072519837
0.78	1.7009874066	0.0075043915
0.786	1.6970124843	0.0077641793
0.792	1.6930209782	0.0080312171
0.798	1.6889777602	0.0083058455
0.804	1.6849118356	0.0085880874
0.81	1.6809337097	0.0088775368
0.816	1.6768875123	0.00917515
0.822	1.6728380697	0.0094807631
0.828	1.6687796219	0.0097945753
0.834	1.6646542436	0.010117118
0.84	1.660624813	0.0104475684
0.846	1.65659204	0.0107866894
0.852	1.6524922323	0.0111350934
0.858	1.6482862272	0.0114932743
0.864	1.6440216088	0.0118611454
0.87	1.6396971456	0.0122389533
0.876	1.6354707798	0.0126257119
0.882	1.6312325165	0.013022415
0.888	1.6269334729	0.0134296741
0.894	1.6226351174	0.0138472129
0.9	1.6183214126	0.0142753754
