Material: glass / vitron / IG2
Optical constants. 1) VITRON datasheet IG-2 June 20142) Dr. Rolf Henkel (VITRON Spezialwerkstoffe GmbH) - private communications
Comments: Room temperature. Refractive index is relative to air at standard conditions; Wavelength in dispersion formula is as measured in air and expressed in micrometers.
Dispersion formula 1, range 1.0 12.0 um, coefficients 2.341388 2.962098 0.360017 0.831035 35.023342
wavelength (um)	k
1.0	7.6434E-07
1.5	4.4239E-07
2.0	4.5765E-07
3.0	8.8443E-07
4.0	7.8088E-07
5.0	9.6615E-07
6.0	4.8549E-07
7.0	5.9146E-07
8.0	1.5079E-06
9.0	2.0710E-07
10.0	3.7970E-07
11.0	4.3306E-06
12.0	5.1546E-05
13.0	9.2932E-05
14.0	3.6857E-05
