Material: ohara / i-line / BAL15Y
Optical constants. 1) OHARA i-line glass data2) OHARA Zemax catalog 2015-12-01
Comments: Improved XMT at 365
Dispersion formula 2, range 0.3 2.4 um, coefficients 0 1.28348331 0.00790900515 0.102800765 0.0305971274 0.404609885 46.5268356
wavelength (um)	k
0.300	4.2302E-06
0.310	1.3016E-06
0.320	4.4399E-07
0.330	1.7088E-07
0.340	7.9624E-08
0.350	4.2095E-08
0.360	2.3010E-08
0.370	1.4759E-08
0.380	1.2120E-08
0.390	9.3246E-09
0.400	6.3726E-09
0.420	6.6912E-09
0.440	7.0098E-09
0.460	7.3285E-09
0.480	7.6471E-09
0.500	3.9809E-09
0.550	4.3790E-09
0.600	4.7770E-09
0.650	1.0355E-08
0.700	5.5732E-09
0.800	6.3694E-09
0.900	1.4338E-08
1.000	3.1895E-08
1.200	4.7866E-08
1.400	1.2323E-07
1.600	1.0227E-07
1.800	2.3104E-07
2.000	4.5199E-07
2.200	1.3271E-06
2.400	2.2256E-06
