Material: ohara / i-line / BSL7Y
Optical constants. 1) OHARA i-line glass data2) OHARA Zemax catalog 2015-12-01
Comments: Improved XMT at 365
Dispersion formula 2, range 0.29 2.4 um, coefficients 0 1.13329383 0.00669407868 0.136897201 0.023739176 0.703456004 70.7030316
wavelength (um)	k
0.290	6.4926E-06
0.300	2.0148E-06
0.310	6.1293E-07
0.320	1.7933E-07
0.330	5.8418E-08
0.340	2.4461E-08
0.350	1.1163E-08
0.360	8.6073E-09
0.370	5.8946E-09
0.380	6.0539E-09
0.390	3.1051E-09
0.400	3.1847E-09
0.420	3.3439E-09
0.440	3.5032E-09
0.460	3.6624E-09
0.480	3.8216E-09
0.500	3.9809E-09
0.550	4.3790E-09
0.600	4.7770E-09
0.650	5.1751E-09
0.700	5.5732E-09
0.800	6.3694E-09
0.900	7.1656E-09
1.000	2.3909E-08
1.200	2.8691E-08
1.400	3.5083E-07
1.600	1.2796E-07
1.800	2.7477E-07
2.000	6.1658E-07
2.200	2.6405E-06
2.400	4.2617E-06
