Material: ohara / i-line / PBM2Y
Optical constants. 1) OHARA i-line glass data2) OHARA Zemax catalog 2015-12-01
Comments: Improved XMT at 365
Dispersion formula 2, range 0.32 2.4 um, coefficients 0 1.39446503 0.0110571872 0.159230985 0.0507194882 0.245470216 31.4440142
wavelength (um)	k
0.320	8.1968E-06
0.330	2.1559E-06
0.340	5.7013E-07
0.350	1.6051E-07
0.360	5.7876E-08
0.370	2.6619E-08
0.380	1.5158E-08
0.390	1.2439E-08
0.400	9.5636E-09
0.420	6.6912E-09
0.440	7.0098E-09
0.460	7.3285E-09
0.480	7.6471E-09
0.500	3.9809E-09
0.550	4.3790E-09
0.600	4.7770E-09
0.650	5.1751E-09
0.700	5.5732E-09
0.800	6.3694E-09
0.900	7.1656E-09
1.000	1.5931E-08
1.200	1.9118E-08
1.400	4.4653E-08
1.600	7.6624E-08
1.800	2.8938E-07
2.000	6.1658E-07
2.200	1.4407E-06
2.400	2.2256E-06
