Material: organic / CCl4 - carbon tetrachloride / Kedenburg
Optical constants. S. Kedenburg, M. Vieweg, T. Gissibl, and H. Giessen. Linear refractive index and absorption measurements of nonlinear optical liquids in the visible and near-infrared spectral region, Opt. Mat. Express 2, 1588-1611 (2012)
Comments: 20 Â°C.
Dispersion formula 2, range 0.5 1.6 um, coefficients 0 1.09215 0.01187
wavelength (um)	k
0.5	1.12602e-08
0.503	1.10076e-08
0.506	1.08316e-08
0.509	1.06528e-08
0.512	1.01452e-08
0.515	9.63086e-09
0.518	9.3572e-09
0.521	9.32847e-09
0.524	9.29879e-09
0.527	9.01653e-09
0.53	8.94132e-09
0.533	8.44054e-09
0.536	8.40274e-09
0.539	8.3211e-09
0.542	8.41054e-09
0.545	8.15351e-09
0.548	8.11117e-09
0.551	7.8048e-09
0.554	7.93547e-09
0.557	7.93411e-09
0.56	7.84316e-09
0.563	7.75077e-09
0.566	7.56686e-09
0.569	8.01449e-09
0.572	7.64708e-09
0.575	7.59567e-09
0.578	7.5893e-09
0.581	7.58246e-09
0.584	7.57514e-09
0.587	7.38049e-09
0.59	7.37126e-09
0.593	7.36155e-09
0.596	7.54108e-09
0.599	7.15004e-09
0.602	5.79658e-09
0.605	5.5366e-09
0.608	5.51567e-09
0.611	5.29978e-09
0.614	4.88117e-09
0.617	4.95903e-09
0.62	4.98314e-09
0.623	5.15598e-09
0.626	4.98155e-09
0.629	4.75015e-09
0.632	5.07959e-09
0.635	5.20476e-09
0.638	5.12781e-09
0.641	4.88668e-09
0.644	4.78655e-09
0.647	4.73162e-09
0.65	4.70183e-09
0.653	4.89502e-09
0.656	4.82354e-09
0.659	4.95048e-09
0.662	5.09418e-09
0.665	5.34482e-09
0.668	5.29451e-09
0.671	5.44644e-09
0.674	5.36352e-09
0.677	5.23116e-09
0.68	5.16235e-09
0.683	5.07099e-09
0.686	3.69575e-09
0.689	3.47067e-09
0.692	3.24348e-09
0.695	3.34603e-09
0.698	3.33826e-09
0.701	3.57016e-09
0.704	3.53502e-09
0.707	3.32504e-09
0.71	3.13575e-09
0.713	3.26815e-09
0.716	3.49272e-09
0.719	3.53024e-09
0.722	3.41857e-09
0.725	3.32892e-09
0.728	3.27318e-09
0.731	3.35647e-09
0.734	3.23591e-09
0.737	2.96762e-09
0.74	3.00914e-09
0.743	3.45887e-09
0.746	3.45503e-09
0.749	3.31992e-09
0.752	3.20755e-09
0.755	3.07014e-09
0.758	2.97979e-09
0.761	3.16115e-09
0.764	3.38032e-09
0.767	3.51567e-09
0.77	3.41913e-09
0.773	3.33403e-09
0.776	3.11231e-09
0.779	3.29171e-09
0.782	3.17993e-09
0.785	3.39828e-09
0.788	3.40499e-09
0.791	3.51237e-09
0.794	3.37405e-09
0.797	3.20287e-09
0.8	3.15763e-09
0.803	3.33562e-09
0.806	3.60464e-09
0.809	3.66956e-09
0.812	3.51516e-09
0.815	3.593e-09
0.818	3.35887e-09
0.821	3.44959e-09
0.824	3.67202e-09
0.827	3.97496e-09
0.83	3.87709e-09
0.833	4.04357e-09
0.836	4.00491e-09
0.839	3.40504e-09
0.842	3.49762e-09
0.845	3.48991e-09
0.848	3.57653e-09
0.851	3.63659e-09
0.854	3.79212e-09
0.857	3.69633e-09
0.86	3.7777e-09
0.863	4.21667e-09
0.866	4.21754e-09
0.869	4.59866e-09
0.872	4.86435e-09
0.875	5.1596e-09
0.878	4.91878e-09
0.881	5.06879e-09
0.884	5.13529e-09
0.887	5.30801e-09
0.89	5.2693e-09
0.893	5.59974e-09
0.896	5.29056e-09
0.899	5.45136e-09
0.902	5.29728e-09
0.905	4.73876e-09
0.908	4.5666e-09
0.911	4.53819e-09
0.914	4.05127e-09
0.917	4.19592e-09
0.92	4.04126e-09
0.923	4.22338e-09
0.926	3.97919e-09
0.929	3.44502e-09
0.932	3.42648e-09
0.935	3.48959e-09
0.938	3.53811e-09
0.941	3.69919e-09
0.944	3.83118e-09
0.947	3.75292e-09
0.95	4.74759e-09
0.953	5.17969e-09
0.956	5.02102e-09
0.959	4.411e-09
0.962	4.23341e-09
0.965	4.26197e-09
0.968	4.15197e-09
0.971	3.83258e-09
0.974	4.15445e-09
0.977	3.98066e-09
0.98	4.32042e-09
0.983	4.48227e-09
0.986	4.43318e-09
0.989	5.0212e-09
0.992	4.92591e-09
0.995	4.52907e-09
0.998	4.20917e-09
1.001	4.47673e-09
1.004	4.7538e-09
1.007	4.44747e-09
1.01	4.81436e-09
1.013	4.54652e-09
1.016	5.13402e-09
1.019	4.86537e-09
1.022	5.09928e-09
1.025	4.90217e-09
1.028	5.30101e-09
1.031	5.02932e-09
1.034	4.73951e-09
1.037	5.13286e-09
1.04	4.36976e-09
1.043	5.22896e-09
1.046	4.25346e-09
1.049	5.05034e-09
1.052	3.55791e-09
1.055	3.71078e-09
1.058	4.17597e-09
1.061	3.97673e-09
1.064	4.27586e-09
1.067	3.88035e-09
1.07	3.93383e-09
1.073	3.79117e-09
1.076	3.83602e-09
1.079	3.81237e-09
1.082	3.86602e-09
1.085	3.74722e-09
1.088	3.72295e-09
1.091	4.01104e-09
1.094	4.17007e-09
1.097	4.35609e-09
1.1	4.09665e-09
1.103	4.47647e-09
1.106	4.27742e-09
1.109	4.51847e-09
1.112	4.44221e-09
1.115	4.85347e-09
1.118	4.96439e-09
1.121	4.99556e-09
1.124	5.39354e-09
1.127	5.82048e-09
1.13	6.56435e-09
1.133	6.6539e-09
1.136	7.5484e-09
1.139	8.05778e-09
1.142	8.98778e-09
1.145	1.0205e-08
1.148	1.08712e-08
1.151	9.43415e-09
1.154	8.53123e-09
1.157	7.44855e-09
1.16	6.78478e-09
1.163	7.00593e-09
1.166	6.43016e-09
1.169	6.24205e-09
1.172	5.53993e-09
1.175	5.69436e-09
1.178	5.79327e-09
1.181	6.14636e-09
1.184	6.03948e-09
1.187	6.3665e-09
1.19	6.54358e-09
1.193	6.674e-09
1.196	6.65271e-09
1.199	6.38316e-09
1.202	6.32261e-09
1.205	6.1466e-09
1.208	6.01771e-09
1.211	5.74355e-09
1.214	5.95099e-09
1.217	5.54926e-09
1.22	5.73769e-09
1.223	5.34305e-09
1.226	5.36591e-09
1.229	5.26168e-09
1.232	5.17648e-09
1.235	5.29719e-09
1.238	5.10318e-09
1.241	5.48094e-09
1.244	5.12791e-09
1.247	5.53721e-09
1.25	5.23222e-09
1.253	5.48408e-09
1.256	4.98747e-09
1.259	5.63057e-09
1.262	5.49334e-09
1.265	5.3856e-09
1.268	5.51946e-09
1.271	5.50218e-09
1.274	5.76862e-09
1.277	5.38588e-09
1.28	5.50039e-09
1.283	5.07427e-09
1.286	5.55688e-09
1.289	5.19031e-09
1.292	5.51084e-09
1.295	5.36905e-09
1.298	5.54676e-09
1.301	5.42499e-09
1.304	5.79031e-09
1.307	5.87644e-09
1.31	6.0046e-09
1.313	6.27956e-09
1.316	5.82265e-09
1.319	6.17181e-09
1.322	5.744e-09
1.325	6.33695e-09
1.328	5.90745e-09
1.331	6.05849e-09
1.334	6.19953e-09
1.337	5.84109e-09
1.34	6.08879e-09
1.343	6.18792e-09
1.346	6.37312e-09
1.349	6.20483e-09
1.352	6.51988e-09
1.355	7.39696e-09
1.358	1.00177e-08
1.361	1.20218e-08
1.364	1.57388e-08
1.367	1.8493e-08
1.37	2.14772e-08
1.373	2.45835e-08
1.376	2.62797e-08
1.379	2.50201e-08
1.382	2.37548e-08
1.385	2.71128e-08
1.388	3.29152e-08
1.391	4.4609e-08
1.394	5.99027e-08
1.397	6.57013e-08
1.4	5.0468e-08
1.403	4.10862e-08
1.406	3.40133e-08
1.409	2.71342e-08
1.412	2.40458e-08
1.415	2.16196e-08
1.418	1.99728e-08
1.421	1.79797e-08
1.424	1.73377e-08
1.427	1.55573e-08
1.43	1.44521e-08
1.433	1.28859e-08
1.436	1.2113e-08
1.439	1.10504e-08
1.442	1.04767e-08
1.445	1.01306e-08
1.448	9.77135e-09
1.451	9.87242e-09
1.454	9.76556e-09
1.457	1.02147e-08
1.46	1.12465e-08
1.463	1.31557e-08
1.466	1.3416e-08
1.469	1.13743e-08
1.472	8.42222e-09
1.475	7.59428e-09
1.478	6.88051e-09
1.481	7.07125e-09
1.484	7.51071e-09
1.487	7.1709e-09
1.49	7.05494e-09
1.493	6.38005e-09
1.496	6.50002e-09
1.499	6.2029e-09
