Material: organic / CHCl3 - chloroform / Kedenburg
Optical constants. S. Kedenburg, M. Vieweg, T. Gissibl, and H. Giessen. Linear refractive index and absorption measurements of nonlinear optical liquids in the visible and near-infrared spectral region, Opt. Mat. Express 2, 1588-1611 (2012)
Comments: 20 Â°C.
Dispersion formula 2, range 0.5 1.6 um, coefficients 0 1.04647 0.01048 0.00345 0.15207
wavelength (um)	k
0.5	1.88996e-08
0.503	1.85727e-08
0.506	1.82406e-08
0.509	1.78222e-08
0.512	1.75605e-08
0.515	1.72946e-08
0.518	1.66533e-08
0.521	1.62523e-08
0.524	1.59706e-08
0.527	1.55168e-08
0.53	1.51412e-08
0.533	1.46331e-08
0.536	1.45875e-08
0.539	1.39829e-08
0.542	1.35863e-08
0.545	1.28808e-08
0.548	1.27337e-08
0.551	1.22772e-08
0.554	1.17709e-08
0.557	1.1746e-08
0.56	1.12745e-08
0.563	1.16934e-08
0.566	1.14854e-08
0.569	1.14557e-08
0.572	1.14706e-08
0.575	1.15765e-08
0.578	1.1361e-08
0.581	1.11425e-08
0.584	1.12465e-08
0.587	1.13043e-08
0.59	1.11273e-08
0.593	1.08536e-08
0.596	1.11456e-08
0.599	1.12017e-08
0.602	1.25992e-08
0.605	1.27101e-08
0.608	1.27248e-08
0.611	1.31279e-08
0.614	1.30946e-08
0.617	1.27658e-08
0.62	1.23345e-08
0.623	1.22455e-08
0.626	1.22546e-08
0.629	1.1963e-08
0.632	1.17686e-08
0.635	1.1976e-08
0.638	1.21849e-08
0.641	1.17831e-08
0.644	1.19408e-08
0.647	1.14815e-08
0.65	1.14313e-08
0.653	1.164e-08
0.656	1.185e-08
0.659	1.19567e-08
0.662	1.25906e-08
0.665	1.33356e-08
0.668	1.37147e-08
0.671	1.38831e-08
0.674	1.36233e-08
0.677	1.31452e-08
0.68	1.31494e-08
0.683	1.26095e-08
0.686	1.20644e-08
0.689	1.11303e-08
0.692	1.0628e-08
0.695	1.05082e-08
0.698	1.04425e-08
0.701	1.04874e-08
0.704	1.04202e-08
0.707	1.09709e-08
0.71	1.15825e-08
0.713	1.27662e-08
0.716	1.53269e-08
0.719	1.94535e-08
0.722	2.21776e-08
0.725	1.81158e-08
0.728	1.29769e-08
0.731	1.18087e-08
0.734	1.34343e-08
0.737	1.55419e-08
0.74	1.74306e-08
0.743	1.73831e-08
0.746	1.45444e-08
0.749	1.18611e-08
0.752	1.08314e-08
0.755	1.05743e-08
0.758	1.00734e-08
0.761	9.99215e-09
0.764	9.84914e-09
0.767	9.82678e-09
0.77	9.92649e-09
0.773	1.01497e-08
0.776	9.75683e-09
0.779	1.01665e-08
0.782	9.64559e-09
0.785	1.04947e-08
0.788	1.09737e-08
0.791	1.20226e-08
0.794	1.40901e-08
0.797	1.92172e-08
0.8	2.62924e-08
0.803	2.60715e-08
0.806	1.75742e-08
0.809	1.22319e-08
0.812	1.08556e-08
0.815	1.07012e-08
0.818	1.19774e-08
0.821	1.372e-08
0.824	1.79667e-08
0.827	2.26388e-08
0.83	1.99469e-08
0.833	1.41856e-08
0.836	1.11765e-08
0.839	1.01484e-08
0.842	9.91663e-09
0.845	1.00864e-08
0.848	1.06621e-08
0.851	1.1377e-08
0.854	1.19608e-08
0.857	1.32986e-08
0.86	1.58773e-08
0.863	1.86797e-08
0.866	2.23971e-08
0.869	3.09113e-08
0.872	4.75332e-08
0.875	7.72896e-08
0.878	1.29258e-07
0.881	2.13128e-07
0.884	2.30033e-07
0.887	1.1576e-07
0.89	4.60356e-08
0.893	2.16031e-08
0.896	1.73975e-08
0.899	1.93874e-08
0.902	2.28257e-08
0.905	2.88791e-08
0.908	3.83681e-08
0.911	4.66868e-08
0.914	4.044e-08
0.917	2.6562e-08
0.92	2.05724e-08
0.923	1.90236e-08
0.926	1.81274e-08
0.929	1.8334e-08
0.932	1.91349e-08
0.935	2.06102e-08
0.938	2.23185e-08
0.941	2.24647e-08
0.944	2.23861e-08
0.947	2.24572e-08
0.95	2.39648e-08
0.953	3.01833e-08
0.956	4.38959e-08
0.959	7.51701e-08
0.962	1.2861e-07
0.965	1.72015e-07
0.968	1.42507e-07
0.971	8.4224e-08
0.974	4.5575e-08
0.977	3.00104e-08
0.98	2.43316e-08
0.983	2.19811e-08
0.986	2.20482e-08
0.989	2.40828e-08
0.992	2.63662e-08
0.995	3.01674e-08
0.998	3.6453e-08
1.001	4.80332e-08
1.004	6.99887e-08
1.007	1.21804e-07
1.01	2.17811e-07
1.013	4.13539e-07
1.016	5.6838e-07
1.019	3.64902e-07
1.022	1.56963e-07
1.025	6.39485e-08
1.028	3.99212e-08
1.031	3.17512e-08
1.034	2.77294e-08
1.037	2.67371e-08
1.04	2.62351e-08
1.043	2.61448e-08
1.046	2.91333e-08
1.049	3.58115e-08
1.052	4.76341e-08
1.055	7.01857e-08
1.058	1.01032e-07
1.061	1.21582e-07
1.064	1.48173e-07
1.067	1.62176e-07
1.07	1.10692e-07
1.073	5.78067e-08
1.076	3.23664e-08
1.079	2.26681e-08
1.082	1.96314e-08
1.085	1.78727e-08
1.088	1.74892e-08
1.091	1.73638e-08
1.094	1.75857e-08
1.097	1.81577e-08
1.1	1.9958e-08
1.103	2.484e-08
1.106	3.11565e-08
1.109	3.45946e-08
1.112	3.54845e-08
1.115	4.16138e-08
1.118	5.46261e-08
1.121	7.59146e-08
1.124	1.05545e-07
1.127	1.417e-07
1.13	1.95132e-07
1.133	3.10155e-07
1.13375	3.58177e-07
1.1375	6.57171e-07
1.14125	1.27145e-06
1.145	2.5877e-06
1.14875	5.37518e-06
1.1525	9.26302e-06
1.15625	4.25093e-06
1.16	1.52311e-06
1.16375	5.28793e-07
1.165	3.56925e-07
1.168	2.24001e-07
1.171	1.96621e-07
1.174	1.88716e-07
1.177	1.86389e-07
1.18	2.00949e-07
1.183	2.25936e-07
1.186	2.4161e-07
1.189	2.42221e-07
1.192	2.37141e-07
1.195	2.35836e-07
1.198	2.58355e-07
1.201	3.09655e-07
1.204	3.7079e-07
1.207	4.82171e-07
1.21	6.79799e-07
1.213	1.00389e-06
1.216	9.65727e-07
1.219	5.75239e-07
1.222	3.18959e-07
1.225	1.83267e-07
1.228	1.42673e-07
1.231	1.31266e-07
1.234	1.15874e-07
1.237	9.10545e-08
1.24	7.10468e-08
1.243	6.01402e-08
1.246	5.63192e-08
1.249	5.41688e-08
1.252	5.20074e-08
1.255	5.09336e-08
1.258	5.14557e-08
1.261	5.0876e-08
1.264	5.12988e-08
1.267	5.41428e-08
1.27	6.41753e-08
1.273	7.90157e-08
1.276	8.4482e-08
1.279	7.30777e-08
1.282	6.1109e-08
1.285	5.78775e-08
1.288	6.04725e-08
1.291	6.56474e-08
1.294	7.12575e-08
1.297	7.75122e-08
1.3	7.88294e-08
1.303	7.69376e-08
1.306	7.01515e-08
1.309	5.77085e-08
1.312	4.87574e-08
1.315	4.49971e-08
1.318	4.37363e-08
1.321	4.47819e-08
1.324	4.79391e-08
1.327	5.22717e-08
1.33	5.96927e-08
1.333	7.20261e-08
1.336	9.41955e-08
1.339	1.29996e-07
1.342	1.55918e-07
1.345	1.64829e-07
1.348	1.90941e-07
1.351	2.41896e-07
1.354	3.11391e-07
1.357	3.94151e-07
1.36	4.42642e-07
1.363	4.3711e-07
1.366	4.3155e-07
1.369	4.48839e-07
1.372	4.95679e-07
1.375	5.62414e-07
1.378	6.39305e-07
1.381	7.24218e-07
1.3825	7.75612e-07
1.38625	1.07998e-06
1.39	1.48221e-06
1.39375	1.96313e-06
1.3975	3.04714e-06
1.40125	5.45274e-06
1.405	1.24105e-05
1.40875	2.60083e-05
1.4125	2.55155e-05
1.41625	1.38623e-05
1.42	6.4523e-06
1.42375	3.05906e-06
1.4275	1.45404e-06
1.43125	8.01823e-07
1.435	5.78962e-07
1.43875	4.96896e-07
1.4425	4.76381e-07
1.44625	4.36187e-07
1.45	4.08471e-07
1.45375	3.91018e-07
1.4575	3.71149e-07
1.46125	3.79081e-07
1.465	3.82386e-07
1.46875	3.89208e-07
1.4725	3.55049e-07
1.47625	3.59477e-07
1.48	3.55679e-07
1.48375	3.90822e-07
1.4875	4.45077e-07
1.49125	6.19457e-07
1.495	9.36281e-07
1.49875	1.14496e-06
1.5025	9.84021e-07
1.50625	8.2586e-07
1.51	8.35126e-07
1.51375	9.7332e-07
1.5175	1.3525e-06
1.52125	1.59796e-06
1.525	1.6383e-06
1.52875	1.86131e-06
1.5325	1.59758e-06
1.53625	1.01224e-06
1.54	6.39707e-07
1.54375	4.37338e-07
1.5475	3.09097e-07
1.55125	2.51827e-07
1.555	2.09126e-07
1.55875	2.12111e-07
1.5625	1.85266e-07
1.56625	2.04407e-07
1.57	1.88654e-07
1.57375	2.24171e-07
1.5775	2.29726e-07
1.58125	2.74313e-07
1.585	3.16587e-07
1.58875	3.99515e-07
1.5925	5.29719e-07
1.59625	4.44589e-07
1.6	3.41228e-07
1.60375	2.89703e-07
1.6075	3.12127e-07
1.61125	3.56449e-07
1.615	4.66519e-07
1.61875	5.70655e-07
1.6225	6.12002e-07
1.62625	5.72005e-07
1.63	5.60353e-07
1.63375	6.16246e-07
1.6375	7.14088e-07
1.64125	9.03797e-07
1.645	1.13625e-06
1.64875	1.4826e-06
1.6525	2.27498e-06
1.65625	3.69041e-06
1.66	4.18753e-06
1.66375	5.08405e-06
1.6675	7.57691e-06
1.67125	1.35654e-05
1.675	2.26597e-05
1.67875	3.99436e-05
1.6825	7.7254e-05
1.68625	0.000155658
1.69	0.000264937
1.69375	0.000252047
1.6975	0.000168853
1.70125	8.43425e-05
1.705	4.28748e-05
1.70875	2.28443e-05
1.7125	1.19514e-05
1.71625	5.81809e-06
1.72	3.65452e-06
1.72375	2.56511e-06
1.7275	2.11704e-06
1.73125	1.99764e-06
1.735	1.94674e-06
1.73875	1.82642e-06
1.7425	1.70556e-06
1.74625	1.54248e-06
1.75	1.44831e-06
