Material: schott / inquiry / K5G20
Optical constants. SCHOTT Zemax catalog 2015-07-22
Comments: inquiry glass
Dispersion formula 2, range 0.37 2.5 um, coefficients 0 1.14094396 0.00694945478 0.14500119 0.0310574444 37.4705786 4536.25624
wavelength (um)	k
0.380	2.4678E-06
0.390	1.1689E-06
0.400	6.2936E-07
0.405	4.9718E-07
0.420	2.6531E-07
0.436	1.6173E-07
0.460	1.0626E-07
0.500	6.3313E-08
0.546	4.2220E-08
0.580	3.3534E-08
0.620	2.9827E-08
0.660	2.7490E-08
0.700	1.7897E-08
1.060	1.6913E-08
1.530	1.1831E-07
1.970	1.7209E-06
2.325	5.7469E-06
2.500	9.0673E-06
