Material: schott / inquiry / LAK9G15
Optical constants. SCHOTT Zemax catalog 2015-07-22
Comments: inquiry glass
Dispersion formula 2, range 0.38 2.5 um, coefficients 0 1.28773667 0.0055754192 0.518244853 0.0223679524 26.1756109 1892.2533
wavelength (um)	k
0.390	5.7169E-06
0.400	4.0984E-06
0.405	3.1042E-06
0.420	1.5233E-06
0.436	7.8013E-07
0.460	3.0854E-07
0.500	1.1550E-07
0.546	6.3721E-08
0.580	5.0533E-08
0.620	4.3902E-08
0.660	3.8160E-08
0.700	3.1415E-08
1.060	1.3523E-08
1.530	6.3727E-08
1.970	5.9139E-07
2.325	5.2793E-06
2.500	1.4583E-05
