Material: schott / inquiry / N-LAF3
Optical constants. SCHOTT Zemax catalog 2015-07-22
Comments: inquiry glass
Dispersion formula 2, range 0.35 2.5 um, coefficients 0 1.73155854 0.00953833914 0.150874455 0.0407887211 1.06586596 98.0758545
wavelength (um)	k
0.350	3.1344E-06
0.365	1.0079E-06
0.370	7.2571E-07
0.380	3.9735E-07
0.390	2.3131E-07
0.400	1.4838E-07
0.405	1.2158E-07
0.420	8.2721E-08
0.436	6.3901E-08
0.460	4.7621E-08
0.500	2.4054E-08
0.546	1.2209E-08
0.580	1.2969E-08
0.620	1.3863E-08
0.660	1.4758E-08
0.700	1.5652E-08
1.060	2.3702E-08
1.530	9.8390E-08
1.970	8.0161E-07
2.325	4.0314E-06
2.500	9.3200E-06
