Material: schott / inquiry / N-SF64
Optical constants. SCHOTT Zemax catalog 2015-07-22
Comments: inquiry glass
Dispersion formula 2, range 0.37 2.5 um, coefficients 0 1.59163762 0.0118623434 0.219908428 0.0594585499 1.46929315 133.310762
wavelength (um)	k
0.370	4.6074E-06
0.380	1.8315E-06
0.390	9.1116E-07
0.400	5.0990E-07
0.405	4.0571E-07
0.420	2.2833E-07
0.436	1.5395E-07
0.460	1.0626E-07
0.500	6.3313E-08
0.546	3.1568E-08
0.580	2.9778E-08
0.620	3.7858E-08
0.660	4.2443E-08
0.700	3.3676E-08
1.060	1.3523E-08
1.530	1.0336E-07
1.970	8.0161E-07
2.325	3.3028E-06
2.500	5.2038E-06
