Material: schott / inquiry / N-SF19
Optical constants. SCHOTT Zemax catalog 2015-07-22
Comments: inquiry glass
Dispersion formula 2, range 0.37 2.5 um, coefficients 0 1.52005444 0.01096144 0.17573947 0.0593248486 1.43623424 126.795151
wavelength (um)	k
0.370	3.5282E-06
0.380	1.3410E-06
0.390	5.9344E-07
0.400	3.3278E-07
0.405	2.7165E-07
0.420	1.7090E-07
0.436	1.2328E-07
0.460	9.5280E-08
0.500	6.4970E-08
0.546	4.0440E-08
0.580	3.7298E-08
0.620	4.3902E-08
0.660	4.2443E-08
0.700	3.3676E-08
1.060	3.7321E-08
1.530	1.4834E-07
1.970	7.3075E-07
2.325	3.5378E-06
2.500	6.5332E-06
