Material: schott / inquiry / P-PK53
Optical constants. SCHOTT Zemax catalog 2015-07-22
Comments: inquiry glass. suitable for precision molding
Dispersion formula 2, range 0.32 2.5 um, coefficients 0 0.960316767 0.00531032986 0.340437227 0.0175073434 0.777865595 106.87533
wavelength (um)	k
0.320	4.6908E-06
0.334	1.7656E-06
0.350	5.6910E-07
0.365	1.7523E-07
0.370	1.2409E-07
0.380	6.2043E-08
0.390	3.0157E-08
0.400	1.9243E-08
0.405	1.9484E-08
0.420	2.0205E-08
0.436	1.8160E-08
0.460	1.4716E-08
0.500	7.9777E-09
0.546	5.2218E-09
0.580	7.3996E-09
0.620	1.1877E-08
0.660	1.6874E-08
0.700	1.7897E-08
1.060	2.0305E-08
1.530	2.2934E-07
1.970	3.7489E-06
2.325	1.0260E-05
2.500	1.5097E-05
