Material: schott / inquiry / SF6G05
Optical constants. SCHOTT Zemax catalog 2015-07-22
Comments: inquiry glass
Dispersion formula 2, range 0.46 2.5 um, coefficients 0 1.62113942 0.0113478992 0.506586092 0.0535840223 10.4032298 1118.83658
wavelength (um)	k
0.460	3.6982E-06
0.500	1.7645E-06
0.546	3.7699E-07
0.580	1.9862E-07
0.620	1.4110E-07
0.660	1.0809E-07
0.700	8.6611E-08
1.060	2.0492E-08
1.530	6.2449E-08
1.970	5.5915E-07
2.325	2.4225E-06
2.500	3.3039E-06
