Material: glass / corning / EagleXG
Optical constants. Corning Material Information (2006)
wavelength (um)	n
0.4358	1.5198
0.4678	1.5169
0.480	1.5160
0.5086	1.5141
0.5461	1.5119
0.5893	1.5099
0.6438	1.5078
