Material: organic / C2H6O - ethanol / Kedenburg
Optical constants. S. Kedenburg, M. Vieweg, T. Gissibl, and H. Giessen. Linear refractive index and absorption measurements of nonlinear optical liquids in the visible and near-infrared spectral region, Opt. Mat. Express 2, 1588-1611 (2012)
Comments: 20 Â°C.
Dispersion formula 2, range 0.5 1.6 um, coefficients 0 0.83189 0.00930 -0.15582 -49.45200
wavelength (um)	k
0.5	3.85155e-09
0.503	3.6425e-09
0.506	3.59577e-09
0.509	3.64544e-09
0.512	3.58137e-09
0.515	3.4999e-09
0.518	3.42548e-09
0.521	3.73968e-09
0.524	3.31921e-09
0.527	3.19982e-09
0.53	3.26443e-09
0.533	3.22777e-09
0.536	3.32271e-09
0.539	3.12256e-09
0.542	3.53243e-09
0.545	3.32212e-09
0.548	3.83754e-09
0.551	3.92871e-09
0.554	3.62386e-09
0.557	3.81635e-09
0.56	3.96168e-09
0.563	4.00531e-09
0.566	4.08971e-09
0.569	3.80801e-09
0.572	4.06934e-09
0.575	3.92138e-09
0.578	3.93724e-09
0.581	4.09638e-09
0.584	4.164e-09
0.587	4.32086e-09
0.59	4.4791e-09
0.593	4.71894e-09
0.596	5.02739e-09
0.599	5.14803e-09
0.602	6.99422e-09
0.605	7.41423e-09
0.608	7.7413e-09
0.611	8.4602e-09
0.614	8.5506e-09
0.617	9.42707e-09
0.62	1.01143e-08
0.623	1.14027e-08
0.626	1.2703e-08
0.629	1.40652e-08
0.632	1.47358e-08
0.635	1.41489e-08
0.638	1.32003e-08
0.641	1.25993e-08
0.644	1.27095e-08
0.647	1.28717e-08
0.65	1.30348e-08
0.653	1.31989e-08
0.656	1.31551e-08
0.659	1.31628e-08
0.662	1.29594e-08
0.665	1.30181e-08
0.668	1.30768e-08
0.671	1.31889e-08
0.674	1.31943e-08
0.677	1.33069e-08
0.68	1.32576e-08
0.683	1.35879e-08
0.686	1.38113e-08
0.689	1.42555e-08
0.692	1.45378e-08
0.695	1.48774e-08
0.698	1.54971e-08
0.701	1.65678e-08
0.704	1.77591e-08
0.707	1.90726e-08
0.71	2.0905e-08
0.713	2.24118e-08
0.716	2.41015e-08
0.719	2.53468e-08
0.722	2.72336e-08
0.725	3.10969e-08
0.728	3.62657e-08
0.731	4.40355e-08
0.734	5.57814e-08
0.737	7.09648e-08
0.74	8.47978e-08
0.743	8.69153e-08
0.746	7.83615e-08
0.749	6.91401e-08
0.752	6.58265e-08
0.755	6.54883e-08
0.758	6.69549e-08
0.761	6.90366e-08
0.764	7.05247e-08
0.767	7.1412e-08
0.77	7.10786e-08
0.773	7.01253e-08
0.776	6.85449e-08
0.779	6.63302e-08
0.782	6.53411e-08
0.785	6.55917e-08
0.788	6.58424e-08
0.791	6.67225e-08
0.794	6.88711e-08
0.797	7.29367e-08
0.8	7.76676e-08
0.803	8.30709e-08
0.806	8.65882e-08
0.809	8.81981e-08
0.812	8.7879e-08
0.815	8.69066e-08
0.818	8.65755e-08
0.821	8.75464e-08
0.824	8.78663e-08
0.827	8.81862e-08
0.83	8.71851e-08
0.833	8.61744e-08
0.836	8.71501e-08
0.839	8.74628e-08
0.842	8.77755e-08
0.845	8.87607e-08
0.848	8.97507e-08
0.851	9.00682e-08
0.854	8.97061e-08
0.857	9.20672e-08
0.86	9.718e-08
0.863	1.04387e-07
0.866	1.14397e-07
0.869	1.27241e-07
0.872	1.44334e-07
0.875	1.65024e-07
0.878	1.85852e-07
0.881	2.00508e-07
0.884	2.14557e-07
0.887	2.40696e-07
0.89	2.76922e-07
0.893	3.46786e-07
0.896	4.49199e-07
0.899	5.86629e-07
0.902	7.32145e-07
0.905	8.78615e-07
0.908	9.46558e-07
0.911	8.55442e-07
0.914	7.27338e-07
0.917	6.50915e-07
0.92	6.17903e-07
0.923	6.05963e-07
0.926	5.96142e-07
0.929	5.87723e-07
0.932	5.7998e-07
0.935	5.6771e-07
0.938	5.47138e-07
0.941	5.14442e-07
0.944	4.70258e-07
0.947	4.24276e-07
0.95	3.84041e-07
0.953	3.61744e-07
0.956	3.71251e-07
0.959	4.10574e-07
0.962	4.50135e-07
0.965	4.60754e-07
0.968	4.61416e-07
0.971	4.74436e-07
0.974	4.9993e-07
0.977	5.30236e-07
0.98	5.69297e-07
0.983	6.17193e-07
0.986	6.74e-07
0.989	7.35078e-07
0.992	7.89409e-07
0.995	8.47222e-07
0.998	9.05369e-07
1.001	9.6385e-07
1.004	1.02267e-06
1.007	1.08182e-06
1.01	1.14934e-06
1.013	1.20112e-06
1.016	1.21276e-06
1.019	1.19201e-06
1.022	1.16299e-06
1.025	1.12562e-06
1.028	1.08802e-06
1.031	1.06658e-06
1.034	1.05322e-06
1.037	1.04803e-06
1.04	1.05934e-06
1.043	1.06239e-06
1.046	1.06545e-06
1.049	1.06015e-06
1.052	1.04644e-06
1.055	1.02424e-06
1.058	1.0019e-06
1.061	9.79408e-07
1.064	9.65243e-07
1.067	9.50983e-07
1.07	9.45142e-07
1.073	9.30714e-07
1.076	9.16191e-07
1.079	9.01573e-07
1.082	8.86859e-07
1.085	8.58235e-07
1.088	8.28573e-07
1.091	8.02208e-07
1.094	7.79167e-07
1.097	7.59479e-07
1.1	7.458e-07
1.103	7.39934e-07
1.106	7.38426e-07
1.109	7.43959e-07
1.112	7.49512e-07
1.115	7.57745e-07
1.118	7.72239e-07
1.121	8.13562e-07
1.124	8.77456e-07
1.127	9.59617e-07
1.13	1.08806e-06
1.133	1.30734e-06
1.136	1.65432e-06
1.139	2.14814e-06
1.142	2.70815e-06
1.145	3.24374e-06
1.148	3.48062e-06
1.151	3.39813e-06
1.154	3.43453e-06
1.157	3.68285e-06
1.16	4.20933e-06
1.163	4.88657e-06
1.166	5.69714e-06
1.169	6.65136e-06
1.172	7.61973e-06
1.175	8.57427e-06
1.178	9.65545e-06
1.181	1.11837e-05
1.184	1.3285e-05
1.187	1.39799e-05
1.19	1.24053e-05
1.193	1.07278e-05
1.196	9.80299e-06
1.199	9.33143e-06
1.202	9.28782e-06
1.205	9.37813e-06
1.208	9.37263e-06
1.211	9.25136e-06
1.214	8.99412e-06
1.217	8.6677e-06
1.22	8.26189e-06
1.223	7.7372e-06
1.226	7.21959e-06
1.229	6.69935e-06
1.232	6.2059e-06
1.235	5.71979e-06
1.238	5.31006e-06
1.241	4.93778e-06
1.244	4.63294e-06
1.247	4.40595e-06
1.25	4.2375e-06
1.253	4.0981e-06
1.256	3.96799e-06
1.259	3.82718e-06
1.262	3.71579e-06
1.265	3.61389e-06
1.268	3.49129e-06
1.271	3.37818e-06
1.274	3.25435e-06
1.277	3.12991e-06
1.28	2.99466e-06
1.283	2.86895e-06
1.286	2.76309e-06
1.289	2.66696e-06
1.292	2.6012e-06
1.295	2.55571e-06
1.298	2.52031e-06
1.301	2.48473e-06
1.304	2.45933e-06
1.307	2.44418e-06
1.31	2.44979e-06
1.313	2.4763e-06
1.316	2.52385e-06
1.319	2.59258e-06
1.322	2.67212e-06
1.325	2.77308e-06
1.328	2.8956e-06
1.331	3.06102e-06
1.334	3.24838e-06
1.337	3.51104e-06
1.34	3.83882e-06
1.343	4.38177e-06
1.346	5.0021e-06
1.349	5.83984e-06
1.352	7.02554e-06
1.355	8.94968e-06
1.3575	1.03705e-05
1.36125	1.08217e-05
1.365	1.12968e-05
1.36875	1.24171e-05
1.3725	1.40894e-05
1.37625	1.55516e-05
1.38	1.53744e-05
1.38375	1.57465e-05
1.3875	1.66725e-05
1.39125	1.73818e-05
1.395	1.76507e-05
1.39875	1.82547e-05
1.4025	1.99777e-05
1.40625	2.20454e-05
1.41	2.35629e-05
1.41375	2.38506e-05
1.4175	2.41394e-05
1.42125	2.4995e-05
1.425	2.63083e-05
1.42875	2.78556e-05
1.4325	2.89547e-05
1.43625	2.98305e-05
1.44	3.10543e-05
1.44375	3.32032e-05
1.4475	3.52476e-05
1.45125	3.74177e-05
1.455	3.95985e-05
1.45875	4.19062e-05
1.4625	4.42252e-05
1.46625	4.63221e-05
1.47	4.78444e-05
1.47375	4.92565e-05
1.4775	5.09103e-05
1.48125	5.28076e-05
1.485	5.44775e-05
1.48875	5.60368e-05
1.4925	5.73656e-05
1.49625	5.88195e-05
1.5	5.99218e-05
1.50375	6.07896e-05
1.5075	6.1661e-05
1.51125	6.22954e-05
1.515	6.28117e-05
1.51875	6.33297e-05
1.5225	6.39707e-05
1.52625	6.43712e-05
1.53	6.48946e-05
1.53375	6.54198e-05
1.5375	6.61915e-05
1.54125	6.70889e-05
1.545	6.81127e-05
1.54875	6.90175e-05
1.5525	7.04201e-05
1.55625	7.17048e-05
1.56	7.3119e-05
1.56375	7.46636e-05
1.5675	7.63395e-05
1.57125	7.77725e-05
1.575	7.90861e-05
1.57875	8.01538e-05
1.5825	8.0722e-05
1.58625	8.0787e-05
1.59	8.03454e-05
1.59375	7.93934e-05
1.5975	7.81819e-05
1.60125	7.63266e-05
1.605	7.43341e-05
1.60875	7.22034e-05
1.6125	6.99337e-05
1.61625	6.72667e-05
1.62	6.45867e-05
1.62375	6.18935e-05
1.6275	5.93166e-05
1.63125	5.69869e-05
1.635	5.4776e-05
1.63875	5.28151e-05
1.6425	5.09753e-05
1.64625	4.95197e-05
1.65	4.84507e-05
1.65375	4.7508e-05
1.6575	4.70882e-05
1.66125	4.71947e-05
1.665	4.79637e-05
1.66875	4.97981e-05
1.6725	5.36366e-05
1.67625	6.22939e-05
1.68	8.11499e-05
1.68375	0.000105181
1.6875	0.000106758
1.69125	0.000110225
1.695	0.00012207
1.69875	0.000119231
1.7025	0.000108385
1.70625	0.000103735
1.71	0.000101242
1.71375	0.000100918
1.7175	0.000101002
1.72125	9.83464e-05
1.725	9.7188e-05
1.72875	0.000101389
1.7325	0.000107537
1.73625	0.000105835
1.74	9.41561e-05
1.74375	8.07602e-05
1.7475	7.20339e-05
