Material: alloys / V-Ga / Golovashkin-78
Optical constants. A. I. Golovashkin, I. S. Levchenko and G. P. Motulevich. Optical properties and electron characteristics of vanadium-gallium alloys obtained by evaporation in vacuum, Sov. Phys. JETP 30, 44-48 (1970)
Comments: 78 K (-195 Â°C). Avaraged data for samples containing 37, 33, and 6 wt% gallium (optical constants of the three samples are close to one another).
wavelength (um)	n	k
0.45	1.96	3.09
0.50	2.24	3.36
0.55	2.35	3.42
0.60	2.45	3.60
0.65	2.65	3.68
0.70	2.82	3.99
0.74	3.06	3.90
0.76	3.12	3.98
0.80	3.26	4.00
0.85	3.27	4.01
0.90	3.45	4.16
0.95	3.50	4.16
0.98	3.49	4.24
1.00	3.55	4.33
1.04	3.58	4.31
1.07	3.60	4.34
1.10	3.63	4.37
1.20	3.94	4.61
1.30	4.16	4.67
1.40	4.35	4.76
1.50	4.30	4.94
1.60	4.35	5.16
1.70	4.44	5.28
1.80	4.32	5.24
1.90	4.22	5.71
2.00	4.47	6.16
2.10	4.48	6.32
2.20	4.58	6.56
2.30	4.61	6.86
2.40	4.74	6.66
2.50	4.79	6.78
2.60	4.95	7.10
