Material: alloys / V-Ga / Golovashkin-293
Optical constants. A. I. Golovashkin, I. S. Levchenko and G. P. Motulevich. Optical properties and electron characteristics of vanadium-gallium alloys obtained by evaporation in vacuum, Sov. Phys. JETP 30, 44-48 (1970)
Comments: 293 K (20 Â°C). Avaraged data for samples containing 37, 33, and 6 wt% gallium (optical constants of the three samples are close to one another).
wavelength (um)	n	k
0.45	2.09	3.09
0.50	2.33	3.37
0.55	2.45	3.42
0.60	2.60	3.60
0.65	2.76	3.68
0.70	2.90	3.93
0.74	3.12	3.98
0.80	3.29	4.06
0.85	3.33	4.07
0.90	3.52	4.18
1.00	3.58	4.34
1.20	4.04	4.67
1.50	4.32	5.06
1.70	4.48	5.50
2.00	4.70	6.01
2.25	4.93	6.61
2.50	5.2	6.9
2.75	5.4	7.9
3.0	5.7	8.4
3.5	6.3	9.6
4.0	6.9	10.4
4.5	7.7	11.4
5.0	8.4	12.2
5.5	9.0	12.8
6.0	9.6	13.2
6.5	10.2	14.0
7.0	10.8	14.1
7.5	11.8	14.8
8.0	12.3	15.3
9.0	13.2	16.6
10.0	13.6	16.8
