Material: glass / vitron / IG3
Optical constants. 1) VITRON datasheet IG-3 June 20142) Dr. Rolf Henkel (VITRON Spezialwerkstoffe GmbH) - private communications
Comments: Room temperature. Refractive index is relative to air at standard conditions; Wavelength in dispersion formula is as measured in air and expressed in micrometers.
Dispersion formula 1, range 1.0 12.0 um, coefficients 3.885429 2.934475 0.508386 0.573772 32.406166
wavelength (um)	k
1.0	1.0000E-03
1.5	1.2419E-06
2.0	1.0003E-06
3.0	1.2925E-06
4.0	1.1877E-06
5.0	2.1506E-06
6.0	1.0243E-06
7.0	1.1946E-06
8.0	3.0023E-06
9.0	4.5033E-07
10.0	5.3779E-07
11.0	5.8146E-06
12.0	4.8806E-05
13.0	1.7298E-04
14.0	5.3684E-05
