Material: glass / vitron / IG6
Optical constants. 1) VITRON datasheet IG-6 June 20142) Dr. Rolf Henkel (VITRON Spezialwerkstoffe GmbH) - private communications
Comments: Room temperature. Refractive index is relative to air at standard conditions; Wavelength in dispersion formula is as measured in air and expressed in micrometers.
Dispersion formula 1, range 1.0 12.0 um, coefficients 3.110014 3.669697 0.426372 2.358954 59.555103
wavelength (um)	k
1.0	9.9503E-07
1.5	5.3877E-07
2.0	4.2951E-07
3.0	1.0636E-06
4.0	9.5938E-07
5.0	8.9935E-07
6.0	9.2298E-07
7.0	5.9146E-07
8.0	1.2363E-07
9.0	1.0618E-06
10.0	3.2719E-07
11.0	1.2674E-06
12.0	2.6299E-06
13.0	2.5220E-05
14.0	7.4877E-05
