Material: glass / schott / SF6HT
Optical constants. 1) SCHOTT optical glass data sheets 2015-07-222) SCHOTT Zemax catalog 2015-07-22
Comments: lead containing glass type
Dispersion formula 2, range 0.365 2.5 um, coefficients 0 1.72448482 0.0134871947 0.390104889 0.0569318095 1.04572858 118.557185
wavelength (um)	k
0.365	3.4805E-06
0.370	2.0196E-06
0.380	7.9097E-07
0.390	3.5713E-07
0.400	1.9203E-07
0.405	1.5023E-07
0.420	7.8461E-08
0.436	4.6571E-08
0.460	2.8088E-08
0.500	1.3747E-08
0.546	6.9658E-09
0.580	6.6583E-09
0.620	9.0991E-09
0.660	9.4751E-09
0.700	7.8123E-09
1.060	3.3758E-09
1.530	4.4030E-08
1.970	4.5507E-07
2.325	1.7445E-06
2.500	2.3961E-06
