Material: glass / ohara / L-LAH84
Optical constants. 1) OHARA optical glass datasheets 2015-12-012) OHARA Zemax catalog 2015-12-01
Comments: Low Softening Temperature
Dispersion formula 2, range 0.34 2.4 um, coefficients 0 1.83606127 0.00981969903 0.341720032 0.0385636264 1.35280173 107.04553
wavelength (um)	k
0.340	4.3545E-06
0.350	1.7162E-06
0.360	7.8620E-07
0.370	4.1004E-07
0.380	2.5214E-07
0.390	1.5919E-07
0.400	1.1340E-07
0.420	7.0935E-08
0.440	5.2919E-08
0.460	3.6790E-08
0.480	2.6832E-08
0.500	1.5947E-08
0.550	8.7623E-09
0.600	9.5589E-09
0.650	1.0355E-08
0.700	5.5732E-09
0.800	6.3694E-09
0.900	7.1656E-09
1.000	7.9617E-09
1.200	9.5541E-09
1.400	2.2304E-08
1.600	3.8255E-08
1.800	1.1505E-07
2.000	4.0295E-07
2.200	1.0460E-06
2.400	4.5020E-06
