Material: glass / ohara / L-TIM28
Optical constants. 1) OHARA optical glass datasheets 2015-12-012) OHARA Zemax catalog 2015-12-01
Comments: Low Softening Temperature
Dispersion formula 2, range 0.3 2.4 um, coefficients 0 1.52780829 0.0114135883 0.232776367 0.0559068566 1.71638781 171.5118
wavelength (um)	k
0.350	1.2826E-05
0.360	4.4709E-06
0.370	1.5041E-06
0.380	6.0010E-07
0.390	3.1666E-07
0.400	1.9696E-07
0.420	1.0525E-07
0.440	7.4313E-08
0.460	5.9043E-08
0.480	4.6114E-08
0.500	3.5972E-08
0.550	1.3150E-08
0.600	1.9137E-08
0.650	2.5928E-08
0.700	1.6736E-08
0.800	6.3694E-09
0.900	7.1656E-09
1.000	7.9617E-09
1.200	9.5541E-09
1.400	2.2304E-08
1.600	6.3822E-08
1.800	2.8938E-07
2.000	6.1658E-07
2.200	1.3271E-06
2.400	2.2256E-06
