Material: glass / ohara / S-LAM59
Optical constants. 1) OHARA optical glass datasheets 2015-12-012) OHARA Zemax catalog 2015-12-01
Comments: Recommended
Dispersion formula 2, range 0.34 2.4 um, coefficients 0 1.63056133 0.00899690705 0.186994897 0.0368011993 1.30014289 122.239544
wavelength (um)	k
0.340	5.3196E-06
0.350	2.1029E-06
0.360	9.0158E-07
0.370	4.4408E-07
0.380	2.4230E-07
0.390	1.4615E-07
0.400	1.0024E-07
0.420	6.0709E-08
0.440	4.9366E-08
0.460	4.0489E-08
0.480	3.0681E-08
0.500	1.9944E-08
0.550	1.3150E-08
0.600	1.9137E-08
0.650	2.5928E-08
0.700	1.6736E-08
0.800	1.2745E-08
0.900	1.4338E-08
1.000	1.5931E-08
1.200	1.9118E-08
1.400	4.4653E-08
1.600	5.1032E-08
1.800	1.2950E-07
2.000	2.8909E-07
2.200	8.6118E-07
2.400	3.1039E-06
