Material: main / Ta2O5 / Bright-nanocrystalline
Optical constants. T. J. Bright, J. I. Watjen, Z. M. Zhang, C. Muratore, A. A. Voevodin, D. I. Koukis, D. B. Tanner and D. J. Arenas. Infrared optical properties of amorphous and nanocrystalline Ta2O5 thin films, J. Appl. Phys 114, 083515 (2013)
Comments: Nanocrystalline (annealed) thin film
wavelength (um)	n	k
5.00000e-01	2.25881e+00	7.22688e-04
5.03778e-01	2.25640e+00	7.29032e-04
5.07614e-01	2.25401e+00	7.35470e-04
5.11509e-01	2.25163e+00	7.42006e-04
5.15464e-01	2.24928e+00	7.48641e-04
5.19481e-01	2.24694e+00	7.55378e-04
5.23560e-01	2.24461e+00	7.62219e-04
5.27704e-01	2.24231e+00	7.69167e-04
5.31915e-01	2.24002e+00	7.76224e-04
5.36193e-01	2.23775e+00	7.83394e-04
5.40541e-01	2.23550e+00	7.90678e-04
5.44959e-01	2.23326e+00	7.98080e-04
5.49451e-01	2.23105e+00	8.05603e-04
5.54017e-01	2.22885e+00	8.13250e-04
5.58659e-01	2.22666e+00	8.21024e-04
5.63380e-01	2.22450e+00	8.28929e-04
5.68182e-01	2.22235e+00	8.36968e-04
5.73066e-01	2.22022e+00	8.45144e-04
5.78035e-01	2.21810e+00	8.53461e-04
5.83090e-01	2.21601e+00	8.61923e-04
5.88235e-01	2.21393e+00	8.70534e-04
5.93472e-01	2.21187e+00	8.79299e-04
5.98802e-01	2.20982e+00	8.88221e-04
6.04230e-01	2.20779e+00	8.97304e-04
6.09756e-01	2.20578e+00	9.06555e-04
6.15385e-01	2.20379e+00	9.15976e-04
6.21118e-01	2.20181e+00	9.25574e-04
6.26959e-01	2.19985e+00	9.35354e-04
6.32911e-01	2.19791e+00	9.45321e-04
6.38978e-01	2.19598e+00	9.55480e-04
6.45161e-01	2.19408e+00	9.65837e-04
6.51466e-01	2.19218e+00	9.76400e-04
6.57895e-01	2.19031e+00	9.87173e-04
6.64452e-01	2.18845e+00	9.98164e-04
6.71141e-01	2.18661e+00	1.00938e-03
6.77966e-01	2.18478e+00	1.02083e-03
6.84932e-01	2.18297e+00	1.03251e-03
6.92042e-01	2.18118e+00	1.04445e-03
6.99301e-01	2.17941e+00	1.05664e-03
7.06714e-01	2.17765e+00	1.06909e-03
7.14286e-01	2.17590e+00	1.08181e-03
7.22022e-01	2.17418e+00	1.09482e-03
7.29927e-01	2.17247e+00	1.10812e-03
7.38007e-01	2.17077e+00	1.12173e-03
7.46269e-01	2.16909e+00	1.13565e-03
7.54717e-01	2.16743e+00	1.14989e-03
7.63359e-01	2.16578e+00	1.16447e-03
7.72201e-01	2.16415e+00	1.17940e-03
7.81250e-01	2.16253e+00	1.19469e-03
7.90514e-01	2.16093e+00	1.21036e-03
8.00000e-01	2.15935e+00	1.22642e-03
8.09717e-01	2.15778e+00	1.24289e-03
8.19672e-01	2.15622e+00	1.25978e-03
8.29876e-01	2.15469e+00	1.27711e-03
8.40336e-01	2.15316e+00	1.29490e-03
8.51064e-01	2.15165e+00	1.31317e-03
8.62069e-01	2.15015e+00	1.33193e-03
8.73362e-01	2.14867e+00	1.35122e-03
8.84956e-01	2.14720e+00	1.37104e-03
8.96861e-01	2.14575e+00	1.39144e-03
9.09091e-01	2.14431e+00	1.41242e-03
9.21659e-01	2.14288e+00	1.43402e-03
9.34579e-01	2.14147e+00	1.45627e-03
9.47867e-01	2.14007e+00	1.47920e-03
9.61538e-01	2.13868e+00	1.50284e-03
9.75610e-01	2.13730e+00	1.52723e-03
9.90099e-01	2.13594e+00	1.55239e-03
1.00503e+00	2.13458e+00	1.57838e-03
1.02041e+00	2.13324e+00	1.60524e-03
1.03627e+00	2.13191e+00	1.63301e-03
1.05263e+00	2.13059e+00	1.66173e-03
1.06952e+00	2.12927e+00	1.69147e-03
1.08696e+00	2.12797e+00	1.72228e-03
1.10497e+00	2.12668e+00	1.75421e-03
1.12360e+00	2.12539e+00	1.78734e-03
1.14286e+00	2.12411e+00	1.82174e-03
1.16279e+00	2.12284e+00	1.85748e-03
1.18343e+00	2.12157e+00	1.89464e-03
1.20482e+00	2.12030e+00	1.93332e-03
1.22699e+00	2.11904e+00	1.97362e-03
1.25000e+00	2.11779e+00	2.01563e-03
1.27389e+00	2.11653e+00	2.05948e-03
1.29870e+00	2.11527e+00	2.10530e-03
1.32450e+00	2.11401e+00	2.15322e-03
1.35135e+00	2.11275e+00	2.20340e-03
1.37931e+00	2.11148e+00	2.25601e-03
1.40845e+00	2.11021e+00	2.31123e-03
1.43885e+00	2.10893e+00	2.36927e-03
1.47059e+00	2.10763e+00	2.43036e-03
1.50376e+00	2.10632e+00	2.49476e-03
1.53846e+00	2.10500e+00	2.56274e-03
1.57480e+00	2.10365e+00	2.63463e-03
1.61290e+00	2.10228e+00	2.71079e-03
1.65289e+00	2.10087e+00	2.79162e-03
1.69492e+00	2.09944e+00	2.87757e-03
1.73913e+00	2.09796e+00	2.96916e-03
1.78571e+00	2.09644e+00	3.06698e-03
1.83486e+00	2.09486e+00	3.17170e-03
1.88679e+00	2.09323e+00	3.28411e-03
1.94175e+00	2.09152e+00	3.40510e-03
2.00000e+00	2.08973e+00	3.53570e-03
2.01207e+00	2.08936e+00	3.56308e-03
2.02429e+00	2.08899e+00	3.59091e-03
2.03666e+00	2.08861e+00	3.61918e-03
2.04918e+00	2.08823e+00	3.64793e-03
2.06186e+00	2.08784e+00	3.67715e-03
2.07469e+00	2.08745e+00	3.70686e-03
2.08768e+00	2.08706e+00	3.73707e-03
2.10084e+00	2.08666e+00	3.76780e-03
2.11416e+00	2.08625e+00	3.79906e-03
2.12766e+00	2.08584e+00	3.83086e-03
2.14133e+00	2.08543e+00	3.86322e-03
2.15517e+00	2.08501e+00	3.89615e-03
2.16920e+00	2.08459e+00	3.92967e-03
2.18341e+00	2.08416e+00	3.96379e-03
2.19780e+00	2.08372e+00	3.99854e-03
2.21239e+00	2.08328e+00	4.03392e-03
2.22717e+00	2.08283e+00	4.06995e-03
2.24215e+00	2.08238e+00	4.10666e-03
2.25734e+00	2.08191e+00	4.14407e-03
2.27273e+00	2.08145e+00	4.18218e-03
2.28833e+00	2.08097e+00	4.22104e-03
2.30415e+00	2.08049e+00	4.26064e-03
2.32019e+00	2.08000e+00	4.30103e-03
2.33645e+00	2.07950e+00	4.34221e-03
2.35294e+00	2.07900e+00	4.38422e-03
2.36967e+00	2.07849e+00	4.42708e-03
2.38663e+00	2.07797e+00	4.47082e-03
2.40385e+00	2.07744e+00	4.51546e-03
2.42131e+00	2.07690e+00	4.56104e-03
2.43902e+00	2.07635e+00	4.60757e-03
2.45700e+00	2.07579e+00	4.65510e-03
2.47525e+00	2.07522e+00	4.70365e-03
2.49377e+00	2.07465e+00	4.75326e-03
2.51256e+00	2.07406e+00	4.80396e-03
2.53165e+00	2.07346e+00	4.85579e-03
2.55102e+00	2.07285e+00	4.90879e-03
2.57069e+00	2.07223e+00	4.96300e-03
2.59067e+00	2.07160e+00	5.01845e-03
2.61097e+00	2.07095e+00	5.07519e-03
2.63158e+00	2.07029e+00	5.13327e-03
2.65252e+00	2.06962e+00	5.19274e-03
2.67380e+00	2.06893e+00	5.25363e-03
2.69542e+00	2.06823e+00	5.31602e-03
2.71739e+00	2.06752e+00	5.37994e-03
2.73973e+00	2.06679e+00	5.44546e-03
2.76243e+00	2.06604e+00	5.51263e-03
2.78552e+00	2.06528e+00	5.58153e-03
2.80899e+00	2.06450e+00	5.65221e-03
2.83286e+00	2.06370e+00	5.72474e-03
2.85714e+00	2.06289e+00	5.79920e-03
2.88184e+00	2.06205e+00	5.87567e-03
2.90698e+00	2.06120e+00	5.95422e-03
2.93255e+00	2.06032e+00	6.03494e-03
2.95858e+00	2.05943e+00	6.11791e-03
2.98507e+00	2.05851e+00	6.20324e-03
3.01205e+00	2.05757e+00	6.29102e-03
3.03951e+00	2.05660e+00	6.38135e-03
3.06748e+00	2.05561e+00	6.47435e-03
3.09598e+00	2.05460e+00	6.57013e-03
3.12500e+00	2.05356e+00	6.66882e-03
3.15457e+00	2.05248e+00	6.77054e-03
3.18471e+00	2.05138e+00	6.87544e-03
3.21543e+00	2.05025e+00	6.98365e-03
3.24675e+00	2.04909e+00	7.09535e-03
3.27869e+00	2.04790e+00	7.21068e-03
3.31126e+00	2.04667e+00	7.32983e-03
3.34448e+00	2.04540e+00	7.45298e-03
3.37838e+00	2.04410e+00	7.58032e-03
3.41297e+00	2.04275e+00	7.71208e-03
3.44828e+00	2.04137e+00	7.84847e-03
3.48432e+00	2.03994e+00	7.98973e-03
3.52113e+00	2.03847e+00	8.13611e-03
3.55872e+00	2.03695e+00	8.28789e-03
3.59712e+00	2.03538e+00	8.44536e-03
3.63636e+00	2.03376e+00	8.60883e-03
3.67647e+00	2.03209e+00	8.77863e-03
3.71747e+00	2.03036e+00	8.95512e-03
3.75940e+00	2.02857e+00	9.13869e-03
3.80228e+00	2.02672e+00	9.32974e-03
3.84615e+00	2.02480e+00	9.52872e-03
3.89105e+00	2.02281e+00	9.73611e-03
3.93701e+00	2.02075e+00	9.95242e-03
3.98406e+00	2.01861e+00	1.01782e-02
4.03226e+00	2.01639e+00	1.04141e-02
4.08163e+00	2.01409e+00	1.06607e-02
4.13223e+00	2.01169e+00	1.09187e-02
4.18410e+00	2.00920e+00	1.11889e-02
4.23729e+00	2.00661e+00	1.14722e-02
4.29185e+00	2.00392e+00	1.17694e-02
4.34783e+00	2.00111e+00	1.20815e-02
4.40529e+00	1.99818e+00	1.24096e-02
4.46429e+00	1.99513e+00	1.27549e-02
4.52489e+00	1.99194e+00	1.31187e-02
4.58716e+00	1.98860e+00	1.35023e-02
4.65116e+00	1.98512e+00	1.39074e-02
4.71698e+00	1.98147e+00	1.43357e-02
4.78469e+00	1.97766e+00	1.47890e-02
4.85437e+00	1.97365e+00	1.52695e-02
4.92611e+00	1.96945e+00	1.57794e-02
5.00000e+00	1.96504e+00	1.63214e-02
5.07614e+00	1.96040e+00	1.68984e-02
5.15464e+00	1.95552e+00	1.75136e-02
5.23560e+00	1.95038e+00	1.81705e-02
5.31915e+00	1.94496e+00	1.88733e-02
5.40541e+00	1.93923e+00	1.96264e-02
5.49451e+00	1.93318e+00	2.04352e-02
5.58659e+00	1.92678e+00	2.13054e-02
5.68182e+00	1.91999e+00	2.22437e-02
5.78035e+00	1.91278e+00	2.32577e-02
5.88235e+00	1.90512e+00	2.43562e-02
5.98802e+00	1.89697e+00	2.55493e-02
6.09756e+00	1.88827e+00	2.68487e-02
6.21118e+00	1.87898e+00	2.82680e-02
6.32911e+00	1.86904e+00	2.98231e-02
6.45161e+00	1.85838e+00	3.15327e-02
6.57895e+00	1.84692e+00	3.34192e-02
6.71141e+00	1.83458e+00	3.55090e-02
6.84932e+00	1.82125e+00	3.78340e-02
6.99301e+00	1.80683e+00	4.04329e-02
7.14286e+00	1.79117e+00	4.33532e-02
7.29927e+00	1.77411e+00	4.66534e-02
7.46269e+00	1.75547e+00	5.04070e-02
7.63359e+00	1.73501e+00	5.47071e-02
7.81250e+00	1.71248e+00	5.96736e-02
8.00000e+00	1.68755e+00	6.54640e-02
8.19672e+00	1.65980e+00	7.22882e-02
8.40336e+00	1.62875e+00	8.04340e-02
8.62069e+00	1.59376e+00	9.03058e-02
8.84956e+00	1.55402e+00	1.02491e-01
9.09091e+00	1.50850e+00	1.17875e-01
9.34579e+00	1.45584e+00	1.37857e-01
9.61538e+00	1.39430e+00	1.64766e-01
9.90099e+00	1.32179e+00	2.02722e-01
1.00503e+01	1.28079e+00	2.28032e-01
1.01266e+01	1.25906e+00	2.42860e-01
1.02041e+01	1.23652e+00	2.59445e-01
1.02828e+01	1.21324e+00	2.78068e-01
1.03627e+01	1.18934e+00	2.99057e-01
1.04439e+01	1.16499e+00	3.22784e-01
1.05263e+01	1.14050e+00	3.49659e-01
1.06101e+01	1.11630e+00	3.80117e-01
1.06952e+01	1.09302e+00	4.14574e-01
1.07817e+01	1.07150e+00	4.53370e-01
1.08696e+01	1.05284e+00	4.96669e-01
1.09589e+01	1.03835e+00	5.44343e-01
1.10497e+01	1.02950e+00	5.95835e-01
1.11421e+01	1.02778e+00	6.50049e-01
1.12360e+01	1.03448e+00	7.05281e-01
1.13314e+01	1.05048e+00	7.59216e-01
1.14286e+01	1.07597e+00	8.08993e-01
1.15274e+01	1.11012e+00	8.51394e-01
1.16279e+01	1.15080e+00	8.83228e-01
1.17302e+01	1.19441e+00	9.01975e-01
1.18343e+01	1.23616e+00	9.06614e-01
1.19403e+01	1.27090e+00	8.98271e-01
1.20482e+01	1.29433e+00	8.80242e-01
1.21581e+01	1.30405e+00	8.57216e-01
1.22699e+01	1.29978e+00	8.34086e-01
1.23839e+01	1.28297e+00	8.14958e-01
1.25000e+01	1.25601e+00	8.02715e-01
1.26183e+01	1.22156e+00	7.99069e-01
1.27389e+01	1.18212e+00	8.04842e-01
1.28617e+01	1.13995e+00	8.20262e-01
1.29870e+01	1.09698e+00	8.45174e-01
1.31148e+01	1.05494e+00	8.79146e-01
1.32450e+01	1.01528e+00	9.21516e-01
1.33779e+01	9.79229e-01	9.71433e-01
1.35135e+01	9.47723e-01	1.02790e+00
1.36519e+01	9.21399e-01	1.08988e+00
1.37931e+01	9.00609e-01	1.15633e+00
1.39373e+01	8.85472e-01	1.22638e+00
1.40845e+01	8.75949e-01	1.29927e+00
1.42349e+01	8.71923e-01	1.37443e+00
1.43885e+01	8.73258e-01	1.45146e+00
1.45455e+01	8.79849e-01	1.53007e+00
1.47059e+01	8.91651e-01	1.61007e+00
1.48699e+01	9.08699e-01	1.69135e+00
1.50376e+01	9.31122e-01	1.77382e+00
1.52091e+01	9.59150e-01	1.85742e+00
1.53846e+01	9.93118e-01	1.94204e+00
1.55642e+01	1.03348e+00	2.02757e+00
1.57480e+01	1.08080e+00	2.11378e+00
1.59363e+01	1.13576e+00	2.20034e+00
1.61290e+01	1.19919e+00	2.28676e+00
1.63265e+01	1.27199e+00	2.37231e+00
1.65289e+01	1.35516e+00	2.45598e+00
1.67364e+01	1.44973e+00	2.53636e+00
1.69492e+01	1.55664e+00	2.61154e+00
1.71674e+01	1.67663e+00	2.67905e+00
1.73913e+01	1.80996e+00	2.73577e+00
1.76211e+01	1.95612e+00	2.77798e+00
1.78571e+01	2.11343e+00	2.80151e+00
1.80995e+01	2.27869e+00	2.80212e+00
1.83486e+01	2.44692e+00	2.77622e+00
1.86047e+01	2.61150e+00	2.72165e+00
1.88679e+01	2.76477e+00	2.63858e+00
1.91388e+01	2.89912e+00	2.52994e+00
1.94175e+01	3.00829e+00	2.40125e+00
1.97044e+01	3.08833e+00	2.25978e+00
2.00000e+01	3.13809e+00	2.11328e+00
2.03046e+01	3.15885e+00	1.96882e+00
2.06186e+01	3.15358e+00	1.83205e+00
2.09424e+01	3.12609e+00	1.70689e+00
2.12766e+01	3.08029e+00	1.59580e+00
2.16216e+01	3.01975e+00	1.50003e+00
2.19780e+01	2.94745e+00	1.42011e+00
2.23464e+01	2.86576e+00	1.35615e+00
2.27273e+01	2.77647e+00	1.30821e+00
2.31214e+01	2.68097e+00	1.27646e+00
2.35294e+01	2.58037e+00	1.26139e+00
2.39521e+01	2.47576e+00	1.26397e+00
2.43902e+01	2.36849e+00	1.28563e+00
2.48447e+01	2.26054e+00	1.32836e+00
2.53165e+01	2.15501e+00	1.39441e+00
2.58065e+01	2.05656e+00	1.48580e+00
2.63158e+01	1.97171e+00	1.60336e+00
2.68456e+01	1.90841e+00	1.74557e+00
2.73973e+01	1.87509e+00	1.90754e+00
2.79720e+01	1.87920e+00	2.08043e+00
2.85714e+01	1.92555e+00	2.25121e+00
2.91971e+01	2.01359e+00	2.40240e+00
2.98507e+01	2.13274e+00	2.51398e+00
3.05344e+01	2.25767e+00	2.57093e+00
3.12500e+01	2.35191e+00	2.57691e+00
3.20000e+01	2.38574e+00	2.56192e+00
3.27869e+01	2.35535e+00	2.57016e+00
3.36134e+01	2.28385e+00	2.63757e+00
3.44828e+01	2.20658e+00	2.77955e+00
3.53982e+01	2.15643e+00	2.99288e+00
3.63636e+01	2.15702e+00	3.26450e+00
3.73832e+01	2.22386e+00	3.57968e+00
3.84615e+01	2.36972e+00	3.92539e+00
3.96040e+01	2.60994e+00	4.28837e+00
4.08163e+01	2.96543e+00	4.64910e+00
4.21053e+01	3.46090e+00	4.97179e+00
4.34783e+01	4.11251e+00	5.19181e+00
4.49438e+01	4.89607e+00	5.21269e+00
4.65116e+01	5.70544e+00	4.94404e+00
4.81928e+01	6.36636e+00	4.39023e+00
5.00000e+01	6.75159e+00	3.68718e+00
5.19481e+01	6.86736e+00	3.00211e+00
5.40541e+01	6.80254e+00	2.42886e+00
5.63380e+01	6.64515e+00	1.98536e+00
5.88235e+01	6.45186e+00	1.65462e+00
6.15385e+01	6.25249e+00	1.41274e+00
6.45161e+01	6.06101e+00	1.23944e+00
6.77966e+01	5.88348e+00	1.12018e+00
7.14286e+01	5.72281e+00	1.04556e+00
7.54717e+01	5.58156e+00	1.01014e+00
8.00000e+01	5.46399e+00	1.01092e+00
8.51064e+01	5.37775e+00	1.04529e+00
9.09091e+01	5.33466e+00	1.10722e+00
9.75610e+01	5.34843e+00	1.18189e+00
1.05263e+02	5.42597e+00	1.24192e+00
1.14286e+02	5.55441e+00	1.25359e+00
1.25000e+02	5.69777e+00	1.19679e+00
1.37931e+02	5.81556e+00	1.08099e+00
1.53846e+02	5.88673e+00	9.36737e-01
1.73913e+02	5.91383e+00	7.93684e-01
2.00000e+02	5.91079e+00	6.68970e-01
2.35294e+02	5.89180e+00	5.69032e-01
2.85714e+02	5.86718e+00	4.95779e-01
3.63636e+02	5.84359e+00	4.52577e-01
5.00000e+02	5.82572e+00	4.52808e-01
8.00000e+02	5.82091e+00	5.51143e-01
