Material: main / Ta2O5 / Bright-amorphous
Optical constants. T. J. Bright, J. I. Watjen, Z. M. Zhang, C. Muratore, A. A. Voevodin, D. I. Koukis, D. B. Tanner and D. J. Arenas. Infrared optical properties of amorphous and nanocrystalline Ta2O5 thin films, J. Appl. Phys 114, 083515 (2013)
Comments: Amporphous thin film
wavelength (um)	n	k
5.00000e-01	2.15870e+00	7.60930e-04
5.03778e-01	2.15719e+00	7.67402e-04
5.07614e-01	2.15569e+00	7.73974e-04
5.11509e-01	2.15419e+00	7.80648e-04
5.15464e-01	2.15271e+00	7.87427e-04
5.19481e-01	2.15124e+00	7.94313e-04
5.23560e-01	2.14978e+00	8.01308e-04
5.27704e-01	2.14833e+00	8.08417e-04
5.31915e-01	2.14689e+00	8.15641e-04
5.36193e-01	2.14546e+00	8.22983e-04
5.40541e-01	2.14404e+00	8.30447e-04
5.44959e-01	2.14263e+00	8.38036e-04
5.49451e-01	2.14124e+00	8.45752e-04
5.54017e-01	2.13985e+00	8.53600e-04
5.58659e-01	2.13848e+00	8.61583e-04
5.63380e-01	2.13711e+00	8.69705e-04
5.68182e-01	2.13576e+00	8.77969e-04
5.73066e-01	2.13441e+00	8.86379e-04
5.78035e-01	2.13308e+00	8.94940e-04
5.83090e-01	2.13175e+00	9.03655e-04
5.88235e-01	2.13044e+00	9.12529e-04
5.93472e-01	2.12914e+00	9.21567e-04
5.98802e-01	2.12785e+00	9.30773e-04
6.04230e-01	2.12656e+00	9.40153e-04
6.09756e-01	2.12529e+00	9.49711e-04
6.15385e-01	2.12403e+00	9.59453e-04
6.21118e-01	2.12278e+00	9.69384e-04
6.26959e-01	2.12154e+00	9.79511e-04
6.32911e-01	2.12031e+00	9.89839e-04
6.38978e-01	2.11909e+00	1.00037e-03
6.45161e-01	2.11788e+00	1.01112e-03
6.51466e-01	2.11668e+00	1.02209e-03
6.57895e-01	2.11549e+00	1.03329e-03
6.64452e-01	2.11431e+00	1.04473e-03
6.71141e-01	2.11313e+00	1.05641e-03
6.77966e-01	2.11197e+00	1.06834e-03
6.84932e-01	2.11082e+00	1.08053e-03
6.92042e-01	2.10968e+00	1.09299e-03
6.99301e-01	2.10855e+00	1.10573e-03
7.06714e-01	2.10742e+00	1.11876e-03
7.14286e-01	2.10631e+00	1.13208e-03
7.22022e-01	2.10521e+00	1.14572e-03
7.29927e-01	2.10411e+00	1.15968e-03
7.38007e-01	2.10303e+00	1.17397e-03
7.46269e-01	2.10195e+00	1.18861e-03
7.54717e-01	2.10088e+00	1.20360e-03
7.63359e-01	2.09982e+00	1.21897e-03
7.72201e-01	2.09877e+00	1.23473e-03
7.81250e-01	2.09773e+00	1.25089e-03
7.90514e-01	2.09670e+00	1.26747e-03
8.00000e-01	2.09568e+00	1.28449e-03
8.09717e-01	2.09466e+00	1.30196e-03
8.19672e-01	2.09365e+00	1.31991e-03
8.29876e-01	2.09265e+00	1.33835e-03
8.40336e-01	2.09166e+00	1.35732e-03
8.51064e-01	2.09067e+00	1.37682e-03
8.62069e-01	2.08970e+00	1.39688e-03
8.73362e-01	2.08873e+00	1.41754e-03
8.84956e-01	2.08776e+00	1.43881e-03
8.96861e-01	2.08681e+00	1.46073e-03
9.09091e-01	2.08586e+00	1.48333e-03
9.21659e-01	2.08491e+00	1.50664e-03
9.34579e-01	2.08398e+00	1.53070e-03
9.47867e-01	2.08304e+00	1.55555e-03
9.61538e-01	2.08212e+00	1.58123e-03
9.75610e-01	2.08119e+00	1.60778e-03
9.90099e-01	2.08028e+00	1.63524e-03
1.00503e+00	2.07936e+00	1.66368e-03
1.02041e+00	2.07845e+00	1.69315e-03
1.03627e+00	2.07755e+00	1.72370e-03
1.05263e+00	2.07664e+00	1.75540e-03
1.06952e+00	2.07574e+00	1.78831e-03
1.08696e+00	2.07484e+00	1.82253e-03
1.10497e+00	2.07394e+00	1.85811e-03
1.12360e+00	2.07304e+00	1.89517e-03
1.14286e+00	2.07214e+00	1.93379e-03
1.16279e+00	2.07124e+00	1.97408e-03
1.18343e+00	2.07034e+00	2.01616e-03
1.20482e+00	2.06943e+00	2.06015e-03
1.22699e+00	2.06852e+00	2.10620e-03
1.25000e+00	2.06760e+00	2.15447e-03
1.27389e+00	2.06667e+00	2.20513e-03
1.29870e+00	2.06574e+00	2.25838e-03
1.32450e+00	2.06479e+00	2.31443e-03
1.35135e+00	2.06384e+00	2.37352e-03
1.37931e+00	2.06286e+00	2.43593e-03
1.40845e+00	2.06188e+00	2.50196e-03
1.43885e+00	2.06087e+00	2.57197e-03
1.47059e+00	2.05984e+00	2.64636e-03
1.50376e+00	2.05879e+00	2.72558e-03
1.53846e+00	2.05770e+00	2.81017e-03
1.57480e+00	2.05659e+00	2.90074e-03
1.61290e+00	2.05543e+00	2.99801e-03
1.65289e+00	2.05424e+00	3.10284e-03
1.69492e+00	2.05299e+00	3.21624e-03
1.73913e+00	2.05169e+00	3.33942e-03
1.78571e+00	2.05033e+00	3.47388e-03
1.83486e+00	2.04889e+00	3.62144e-03
1.88679e+00	2.04737e+00	3.78441e-03
1.94175e+00	2.04576e+00	3.96569e-03
2.00000e+00	2.04403e+00	4.16907e-03
2.01207e+00	2.04367e+00	4.21282e-03
2.02429e+00	2.04330e+00	4.25769e-03
2.03666e+00	2.04293e+00	4.30374e-03
2.04918e+00	2.04256e+00	4.35102e-03
2.06186e+00	2.04217e+00	4.39958e-03
2.07469e+00	2.04179e+00	4.44950e-03
2.08768e+00	2.04139e+00	4.50083e-03
2.10084e+00	2.04099e+00	4.55364e-03
2.11416e+00	2.04058e+00	4.60802e-03
2.12766e+00	2.04017e+00	4.66403e-03
2.14133e+00	2.03975e+00	4.72178e-03
2.15517e+00	2.03932e+00	4.78134e-03
2.16920e+00	2.03888e+00	4.84282e-03
2.18341e+00	2.03844e+00	4.90633e-03
2.19780e+00	2.03799e+00	4.97198e-03
2.21239e+00	2.03753e+00	5.03990e-03
2.22717e+00	2.03706e+00	5.11023e-03
2.24215e+00	2.03658e+00	5.18312e-03
2.25734e+00	2.03610e+00	5.25872e-03
2.27273e+00	2.03560e+00	5.33722e-03
2.28833e+00	2.03510e+00	5.41881e-03
2.30415e+00	2.03458e+00	5.50369e-03
2.32019e+00	2.03405e+00	5.59209e-03
2.33645e+00	2.03352e+00	5.68428e-03
2.35294e+00	2.03297e+00	5.78052e-03
2.36967e+00	2.03241e+00	5.88111e-03
2.38663e+00	2.03183e+00	5.98641e-03
2.40385e+00	2.03125e+00	6.09678e-03
2.42131e+00	2.03065e+00	6.21262e-03
2.43902e+00	2.03004e+00	6.33441e-03
2.45700e+00	2.02941e+00	6.46265e-03
2.47525e+00	2.02877e+00	6.59791e-03
2.49377e+00	2.02811e+00	6.74082e-03
2.51256e+00	2.02744e+00	6.89210e-03
2.53165e+00	2.02675e+00	7.05254e-03
2.55102e+00	2.02605e+00	7.22304e-03
2.57069e+00	2.02532e+00	7.40461e-03
2.59067e+00	2.02458e+00	7.59840e-03
2.61097e+00	2.02382e+00	7.80569e-03
2.63158e+00	2.02304e+00	8.02795e-03
2.65252e+00	2.02224e+00	8.26684e-03
2.67380e+00	2.02142e+00	8.52424e-03
2.69542e+00	2.02058e+00	8.80229e-03
2.71739e+00	2.01972e+00	9.10343e-03
2.73973e+00	2.01884e+00	9.43043e-03
2.76243e+00	2.01794e+00	9.78642e-03
2.78552e+00	2.01701e+00	1.01750e-02
2.80899e+00	2.01607e+00	1.06000e-02
2.83286e+00	2.01512e+00	1.10661e-02
2.85714e+00	2.01414e+00	1.15781e-02
2.88184e+00	2.01316e+00	1.21415e-02
2.90698e+00	2.01217e+00	1.27619e-02
2.93255e+00	2.01118e+00	1.34453e-02
2.95858e+00	2.01021e+00	1.41974e-02
2.98507e+00	2.00926e+00	1.50231e-02
3.01205e+00	2.00834e+00	1.59258e-02
3.03951e+00	2.00749e+00	1.69062e-02
3.06748e+00	2.00672e+00	1.79603e-02
3.09598e+00	2.00605e+00	1.90778e-02
3.12500e+00	2.00552e+00	2.02392e-02
3.15457e+00	2.00514e+00	2.14139e-02
3.18471e+00	2.00495e+00	2.25589e-02
3.21543e+00	2.00494e+00	2.36196e-02
3.24675e+00	2.00511e+00	2.45338e-02
3.27869e+00	2.00542e+00	2.52400e-02
3.31126e+00	2.00582e+00	2.56874e-02
3.34448e+00	2.00622e+00	2.58465e-02
3.37838e+00	2.00655e+00	2.57163e-02
3.41297e+00	2.00673e+00	2.53240e-02
3.44828e+00	2.00669e+00	2.47193e-02
3.48432e+00	2.00641e+00	2.39638e-02
3.52113e+00	2.00587e+00	2.31201e-02
3.55872e+00	2.00507e+00	2.22442e-02
3.59712e+00	2.00404e+00	2.13808e-02
3.63636e+00	2.00279e+00	2.05622e-02
3.67647e+00	2.00134e+00	1.98092e-02
3.71747e+00	1.99974e+00	1.91336e-02
3.75940e+00	1.99799e+00	1.85405e-02
3.80228e+00	1.99611e+00	1.80303e-02
3.84615e+00	1.99413e+00	1.76004e-02
3.89105e+00	1.99204e+00	1.72468e-02
3.93701e+00	1.98985e+00	1.69645e-02
3.98406e+00	1.98757e+00	1.67484e-02
4.03226e+00	1.98520e+00	1.65937e-02
4.08163e+00	1.98275e+00	1.64957e-02
4.13223e+00	1.98020e+00	1.64505e-02
4.18410e+00	1.97756e+00	1.64545e-02
4.23729e+00	1.97482e+00	1.65047e-02
4.29185e+00	1.97198e+00	1.65987e-02
4.34783e+00	1.96904e+00	1.67345e-02
4.40529e+00	1.96598e+00	1.69107e-02
4.46429e+00	1.96280e+00	1.71263e-02
4.52489e+00	1.95950e+00	1.73806e-02
4.58716e+00	1.95606e+00	1.76734e-02
4.65116e+00	1.95247e+00	1.80049e-02
4.71698e+00	1.94874e+00	1.83757e-02
4.78469e+00	1.94483e+00	1.87867e-02
4.85437e+00	1.94075e+00	1.92391e-02
4.92611e+00	1.93648e+00	1.97346e-02
5.00000e+00	1.93200e+00	2.02753e-02
5.07614e+00	1.92731e+00	2.08638e-02
5.15464e+00	1.92238e+00	2.15029e-02
5.23560e+00	1.91719e+00	2.21961e-02
5.31915e+00	1.91173e+00	2.29474e-02
5.40541e+00	1.90597e+00	2.37614e-02
5.49451e+00	1.89990e+00	2.46435e-02
5.58659e+00	1.89347e+00	2.55997e-02
5.68182e+00	1.88667e+00	2.66371e-02
5.78035e+00	1.87946e+00	2.77636e-02
5.88235e+00	1.87180e+00	2.89886e-02
5.98802e+00	1.86365e+00	3.03227e-02
6.09756e+00	1.85496e+00	3.17784e-02
6.21118e+00	1.84569e+00	3.33700e-02
6.32911e+00	1.83577e+00	3.51145e-02
6.45161e+00	1.82514e+00	3.70314e-02
6.57895e+00	1.81371e+00	3.91442e-02
6.71141e+00	1.80141e+00	4.14805e-02
6.84932e+00	1.78813e+00	4.40735e-02
6.99301e+00	1.77375e+00	4.69631e-02
7.14286e+00	1.75813e+00	5.01980e-02
7.29927e+00	1.74112e+00	5.38381e-02
7.46269e+00	1.72252e+00	5.79580e-02
7.63359e+00	1.70211e+00	6.26517e-02
7.81250e+00	1.67961e+00	6.80395e-02
8.00000e+00	1.65469e+00	7.42785e-02
8.19672e+00	1.62693e+00	8.15777e-02
8.40336e+00	1.59583e+00	9.02221e-02
8.62069e+00	1.56073e+00	1.00612e-01
8.84956e+00	1.52080e+00	1.13328e-01
9.09091e+00	1.47495e+00	1.29250e-01
9.34579e+00	1.42178e+00	1.49779e-01
9.61538e+00	1.35946e+00	1.77277e-01
9.90099e+00	1.28585e+00	2.15996e-01
1.00503e+01	1.24424e+00	2.41858e-01
1.01266e+01	1.22222e+00	2.57037e-01
1.02041e+01	1.19945e+00	2.74037e-01
1.02828e+01	1.17603e+00	2.93150e-01
1.03627e+01	1.15215e+00	3.14705e-01
1.04439e+01	1.12810e+00	3.39059e-01
1.05263e+01	1.10429e+00	3.66575e-01
1.06101e+01	1.08134e+00	3.97573e-01
1.06952e+01	1.06008e+00	4.32256e-01
1.07817e+01	1.04157e+00	4.70590e-01
1.08696e+01	1.02702e+00	5.12151e-01
1.09589e+01	1.01769e+00	5.55976e-01
1.10497e+01	1.01460e+00	6.00452e-01
1.11421e+01	1.01819e+00	6.43345e-01
1.12360e+01	1.02793e+00	6.82023e-01
1.13314e+01	1.04202e+00	7.13934e-01
1.14286e+01	1.05742e+00	7.37299e-01
1.15274e+01	1.07021e+00	7.51828e-01
1.16279e+01	1.07655e+00	7.59090e-01
1.17302e+01	1.07365e+00	7.62255e-01
1.18343e+01	1.06038e+00	7.65276e-01
1.19403e+01	1.03726e+00	7.71966e-01
1.20482e+01	1.00601e+00	7.85377e-01
1.21581e+01	9.68972e-01	8.07593e-01
1.22699e+01	9.28721e-01	8.39783e-01
1.23839e+01	8.87767e-01	8.82338e-01
1.25000e+01	8.48386e-01	9.35005e-01
1.26183e+01	8.12473e-01	9.97042e-01
1.27389e+01	7.81437e-01	1.06743e+00
1.28617e+01	7.56186e-01	1.14508e+00
1.29870e+01	7.37229e-01	1.22910e+00
1.31148e+01	7.24838e-01	1.31888e+00
1.32450e+01	7.19235e-01	1.41418e+00
1.33779e+01	7.20784e-01	1.51515e+00
1.35135e+01	7.30172e-01	1.62230e+00
1.36519e+01	7.48647e-01	1.73648e+00
1.37931e+01	7.78359e-01	1.85884e+00
1.39373e+01	8.22922e-01	1.99066e+00
1.40845e+01	8.88380e-01	2.13286e+00
1.42349e+01	9.84742e-01	2.28448e+00
1.43885e+01	1.12771e+00	2.43838e+00
1.45455e+01	1.33687e+00	2.57082e+00
1.47059e+01	1.61559e+00	2.62645e+00
1.48699e+01	1.89790e+00	2.53915e+00
1.50376e+01	2.05641e+00	2.34168e+00
1.52091e+01	2.06440e+00	2.17455e+00
1.53846e+01	2.01597e+00	2.11242e+00
1.55642e+01	1.99301e+00	2.13291e+00
1.57480e+01	2.02533e+00	2.18748e+00
1.59363e+01	2.11114e+00	2.23594e+00
1.61290e+01	2.23377e+00	2.25094e+00
1.63265e+01	2.36830e+00	2.21799e+00
1.65289e+01	2.48694e+00	2.13754e+00
1.67364e+01	2.56762e+00	2.02479e+00
1.69492e+01	2.60130e+00	1.90295e+00
1.71674e+01	2.59246e+00	1.79361e+00
1.73913e+01	2.55356e+00	1.71077e+00
1.76211e+01	2.49908e+00	1.66031e+00
1.78571e+01	2.44216e+00	1.64217e+00
1.80995e+01	2.39360e+00	1.65253e+00
1.83486e+01	2.36172e+00	1.68503e+00
1.86047e+01	2.35224e+00	1.73144e+00
1.88679e+01	2.36798e+00	1.78222e+00
1.91388e+01	2.40831e+00	1.82722e+00
1.94175e+01	2.46875e+00	1.85687e+00
1.97044e+01	2.54106e+00	1.86392e+00
2.00000e+01	2.61433e+00	1.84519e+00
2.03046e+01	2.67728e+00	1.80274e+00
2.06186e+01	2.72110e+00	1.74343e+00
2.09424e+01	2.74135e+00	1.67674e+00
2.12766e+01	2.73822e+00	1.61207e+00
2.16216e+01	2.71520e+00	1.55677e+00
2.19780e+01	2.67732e+00	1.51552e+00
2.23464e+01	2.62983e+00	1.49063e+00
2.27273e+01	2.57740e+00	1.48273e+00
2.31214e+01	2.52395e+00	1.49142e+00
2.35294e+01	2.47267e+00	1.51572e+00
2.39521e+01	2.42615e+00	1.55434e+00
2.43902e+01	2.38651e+00	1.60585e+00
2.48447e+01	2.35548e+00	1.66869e+00
2.53165e+01	2.33447e+00	1.74124e+00
2.58065e+01	2.32461e+00	1.82185e+00
2.63158e+01	2.32677e+00	1.90888e+00
2.68456e+01	2.34161e+00	2.00070e+00
2.73973e+01	2.36964e+00	2.09573e+00
2.79720e+01	2.41125e+00	2.19242e+00
2.85714e+01	2.46677e+00	2.28922e+00
2.91971e+01	2.53644e+00	2.38456e+00
2.98507e+01	2.62046e+00	2.47675e+00
3.05344e+01	2.71892e+00	2.56400e+00
3.12500e+01	2.83176e+00	2.64429e+00
3.20000e+01	2.95868e+00	2.71543e+00
3.27869e+01	3.09901e+00	2.77501e+00
3.36134e+01	3.25159e+00	2.82050e+00
3.44828e+01	3.41466e+00	2.84932e+00
3.53982e+01	3.58575e+00	2.85910e+00
3.63636e+01	3.76163e+00	2.84786e+00
3.73832e+01	3.93843e+00	2.81432e+00
3.84615e+01	4.11184e+00	2.75818e+00
3.96040e+01	4.27741e+00	2.68029e+00
4.08163e+01	4.43098e+00	2.58270e+00
4.21053e+01	4.56911e+00	2.46850e+00
4.34783e+01	4.68932e+00	2.34152e+00
4.49438e+01	4.79036e+00	2.20595e+00
4.65116e+01	4.87208e+00	2.06589e+00
4.81928e+01	4.93532e+00	1.92506e+00
5.00000e+01	4.98167e+00	1.78654e+00
5.19481e+01	5.01312e+00	1.65271e+00
5.40541e+01	5.03188e+00	1.52523e+00
5.63380e+01	5.04014e+00	1.40516e+00
5.88235e+01	5.03995e+00	1.29302e+00
6.15385e+01	5.03316e+00	1.18896e+00
6.45161e+01	5.02137e+00	1.09285e+00
6.77966e+01	5.00593e+00	1.00436e+00
7.14286e+01	4.98796e+00	9.23083e-01
7.54717e+01	4.96837e+00	8.48519e-01
8.00000e+01	4.94789e+00	7.80173e-01
8.51064e+01	4.92712e+00	7.17562e-01
9.09091e+01	4.90651e+00	6.60237e-01
9.75610e+01	4.88644e+00	6.07803e-01
1.05263e+02	4.86717e+00	5.59928e-01
1.14286e+02	4.84894e+00	5.16364e-01
1.25000e+02	4.83192e+00	4.76964e-01
1.37931e+02	4.81623e+00	4.41720e-01
1.53846e+02	4.80201e+00	4.10819e-01
1.73913e+02	4.78934e+00	3.84746e-01
2.00000e+02	4.77835e+00	3.64488e-01
2.35294e+02	4.76918e+00	3.51950e-01
2.85714e+02	4.76213e+00	3.50906e-01
3.63636e+02	4.75786e+00	3.69513e-01
5.00000e+02	4.75845e+00	4.28421e-01
8.00000e+02	4.77367e+00	5.97509e-01
