Material: perovskite / CH3NH3PbI3 / Leguy
Optical constants. A. M. A. Leguy, Y. Hu, M. Campoy-Quiles, M. I. Alonso, O. J. Weber, P. Azarhoosh, M. van Schilfgaarde, M. T. Weller, T Bein, J. Nelson, P. Docampo, and P. R. F. Barnes. Reversible hydration of CH3NH3PbI3 in films, single crystals, and solar cells, Chem. Matter. 27, 3397-3407 (2015)
Comments: Single crystal CH3NH3PbI3; orientation unknown; room temperature; critical point model used for fit, 249 nm - 789 nm - fit not reliable for sub-bandgap region - see reference
wavelength (um)	n	k
0.2490	1.8201	0.8158
0.2510	1.8258	0.8179
0.2530	1.8309	0.8196
0.2550	1.8356	0.8211
0.2570	1.8398	0.8224
0.2590	1.8434	0.8236
0.2610	1.8465	0.8246
0.2630	1.8489	0.8255
0.2650	1.8506	0.8264
0.2670	1.8516	0.8273
0.2690	1.8519	0.8284
0.2710	1.8514	0.8296
0.2730	1.8500	0.8310
0.2750	1.8479	0.8328
0.2770	1.8449	0.8351
0.2790	1.8409	0.8380
0.2810	1.8361	0.8415
0.2830	1.8304	0.8459
0.2850	1.8238	0.8513
0.2870	1.8164	0.8578
0.2890	1.8082	0.8656
0.2910	1.7993	0.8750
0.2930	1.7899	0.8860
0.2950	1.7801	0.8990
0.2970	1.7699	0.9140
0.2990	1.7598	0.9312
0.3010	1.7499	0.9508
0.3030	1.7406	0.9730
0.3050	1.7322	0.9977
0.3070	1.7252	1.0250
0.3090	1.7198	1.0549
0.3110	1.7167	1.0873
0.3130	1.7161	1.1220
0.3150	1.7184	1.1585
0.3170	1.7240	1.1968
0.3190	1.7333	1.2364
0.3210	1.7464	1.2768
0.3230	1.7635	1.3174
0.3250	1.7847	1.3579
0.3270	1.8100	1.3977
0.3290	1.8393	1.4363
0.3310	1.8724	1.4732
0.3330	1.9090	1.5080
0.3350	1.9491	1.5403
0.3370	1.9922	1.5699
0.3390	2.0382	1.5963
0.3410	2.0863	1.6193
0.3430	2.1366	1.6388
0.3450	2.1886	1.6546
0.3470	2.2419	1.6666
0.3490	2.2960	1.6746
0.3510	2.3505	1.6788
0.3530	2.4053	1.6790
0.3550	2.4600	1.6754
0.3570	2.5142	1.6679
0.3590	2.5676	1.6568
0.3610	2.6196	1.6422
0.3630	2.6703	1.6239
0.3650	2.7195	1.6025
0.3670	2.7667	1.5779
0.3690	2.8117	1.5504
0.3710	2.8542	1.5204
0.3730	2.8942	1.4878
0.3750	2.9316	1.4528
0.3770	2.9659	1.4160
0.3790	2.9973	1.3774
0.3810	3.0255	1.3374
0.3830	3.0503	1.2965
0.3850	3.0721	1.2545
0.3870	3.0905	1.2119
0.3890	3.1055	1.1691
0.3910	3.1173	1.1263
0.3930	3.1257	1.0838
0.3950	3.1310	1.0422
0.3970	3.1332	1.0013
0.3990	3.1325	0.9615
0.4010	3.1290	0.9231
0.4030	3.1229	0.8863
0.4050	3.1144	0.8514
0.4070	3.1038	0.8186
0.4090	3.0912	0.7880
0.4110	3.0769	0.7597
0.4130	3.0612	0.7339
0.4150	3.0443	0.7105
0.4170	3.0267	0.6898
0.4190	3.0084	0.6717
0.4210	2.9898	0.6564
0.4230	2.9713	0.6435
0.4250	2.9529	0.6331
0.4270	2.9350	0.6252
0.4290	2.9179	0.6196
0.4310	2.9018	0.6162
0.4330	2.8870	0.6147
0.4350	2.8735	0.6152
0.4370	2.8617	0.6171
0.4390	2.8516	0.6204
0.4410	2.8433	0.6249
0.4430	2.8369	0.6302
0.4450	2.8325	0.6361
0.4470	2.8301	0.6422
0.4490	2.8298	0.6485
0.4510	2.8313	0.6545
0.4530	2.8346	0.6600
0.4550	2.8397	0.6649
0.4570	2.8463	0.6690
0.4590	2.8542	0.6719
0.4610	2.8635	0.6736
0.4630	2.8738	0.6740
0.4650	2.8848	0.6729
0.4670	2.8963	0.6704
0.4690	2.9082	0.6663
0.4710	2.9203	0.6607
0.4730	2.9323	0.6535
0.4750	2.9440	0.6450
0.4770	2.9553	0.6351
0.4790	2.9660	0.6239
0.4810	2.9761	0.6116
0.4830	2.9852	0.5983
0.4850	2.9934	0.5842
0.4870	3.0005	0.5694
0.4890	3.0066	0.5540
0.4910	3.0117	0.5381
0.4930	3.0157	0.5219
0.4950	3.0186	0.5055
0.4970	3.0206	0.4891
0.4990	3.0214	0.4727
0.5010	3.0214	0.4565
0.5030	3.0204	0.4405
0.5050	3.0186	0.4247
0.5070	3.0160	0.4095
0.5090	3.0128	0.3945
0.5110	3.0088	0.3800
0.5130	3.0043	0.3659
0.5150	2.9992	0.3523
0.5170	2.9937	0.3392
0.5190	2.9877	0.3267
0.5210	2.9814	0.3146
0.5230	2.9748	0.3031
0.5250	2.9679	0.2921
0.5270	2.9608	0.2816
0.5290	2.9535	0.2718
0.5310	2.9460	0.2623
0.5330	2.9385	0.2533
0.5350	2.9308	0.2447
0.5370	2.9231	0.2366
0.5390	2.9153	0.2289
0.5410	2.9076	0.2217
0.5430	2.8997	0.2148
0.5450	2.8920	0.2084
0.5470	2.8843	0.2023
0.5490	2.8766	0.1965
0.5510	2.8690	0.1911
0.5530	2.8615	0.1861
0.5550	2.8541	0.1813
0.5570	2.8467	0.1768
0.5590	2.8394	0.1726
0.5610	2.8322	0.1686
0.5630	2.8252	0.1649
0.5650	2.8182	0.1614
0.5670	2.8114	0.1582
0.5690	2.8045	0.1552
0.5710	2.7980	0.1523
0.5730	2.7915	0.1497
0.5750	2.7851	0.1473
0.5770	2.7789	0.1450
0.5790	2.7728	0.1429
0.5810	2.7668	0.1410
0.5830	2.7608	0.1392
0.5850	2.7551	0.1375
0.5870	2.7495	0.1360
0.5890	2.7439	0.1346
0.5910	2.7385	0.1333
0.5930	2.7332	0.1321
0.5950	2.7281	0.1310
0.5970	2.7231	0.1301
0.5990	2.7181	0.1292
0.6010	2.7134	0.1284
0.6030	2.7086	0.1277
0.6050	2.7041	0.1271
0.6070	2.6997	0.1266
0.6090	2.6953	0.1261
0.6110	2.6910	0.1257
0.6130	2.6869	0.1254
0.6150	2.6828	0.1251
0.6170	2.6788	0.1249
0.6190	2.6750	0.1247
0.6210	2.6712	0.1246
0.6230	2.6676	0.1245
0.6250	2.6640	0.1245
0.6270	2.6606	0.1245
0.6290	2.6573	0.1246
0.6310	2.6540	0.1247
0.6330	2.6508	0.1248
0.6350	2.6477	0.1250
0.6370	2.6448	0.1251
0.6390	2.6419	0.1253
0.6410	2.6390	0.1256
0.6430	2.6363	0.1258
0.6450	2.6336	0.1261
0.6470	2.6311	0.1264
0.6490	2.6286	0.1268
0.6510	2.6262	0.1271
0.6530	2.6239	0.1275
0.6550	2.6217	0.1278
0.6570	2.6195	0.1282
0.6590	2.6174	0.1286
0.6610	2.6154	0.1290
0.6630	2.6134	0.1294
0.6650	2.6116	0.1298
0.6670	2.6098	0.1303
0.6690	2.6081	0.1307
0.6710	2.6065	0.1311
0.6730	2.6050	0.1316
0.6750	2.6035	0.1320
0.6770	2.6021	0.1324
0.6790	2.6007	0.1329
0.6810	2.5994	0.1333
0.6830	2.5982	0.1337
0.6850	2.5972	0.1342
0.6870	2.5961	0.1346
0.6890	2.5952	0.1350
0.6910	2.5943	0.1354
0.6930	2.5935	0.1358
0.6950	2.5928	0.1362
0.6970	2.5922	0.1366
0.6990	2.5916	0.1370
0.7010	2.5911	0.1373
0.7030	2.5907	0.1377
0.7050	2.5904	0.1380
0.7070	2.5902	0.1383
0.7090	2.5901	0.1386
0.7110	2.5901	0.1388
0.7130	2.5901	0.1390
0.7150	2.5904	0.1392
0.7170	2.5906	0.1394
0.7190	2.5911	0.1395
0.7210	2.5915	0.1396
0.7230	2.5922	0.1396
0.7250	2.5930	0.1396
0.7270	2.5940	0.1396
0.7290	2.5951	0.1394
0.7310	2.5964	0.1392
0.7330	2.5979	0.1389
0.7350	2.5995	0.1385
0.7370	2.6014	0.1379
0.7390	2.6036	0.1373
0.7410	2.6060	0.1364
0.7430	2.6088	0.1353
0.7450	2.6119	0.1339
0.7470	2.6155	0.1322
0.7490	2.6195	0.1299
0.7510	2.6242	0.1270
0.7530	2.6292	0.1233
0.7550	2.6351	0.1182
0.7570	2.6413	0.1111
0.7590	2.6475	0.1012
0.7610	2.6519	0.0879
0.7630	2.6522	0.0718
0.7650	2.6469	0.0558
0.7670	2.6374	0.0430
0.7690	2.6264	0.0343
0.7710	2.6157	0.0287
0.7730	2.6059	0.0251
0.7750	2.5971	0.0228
0.7770	2.5892	0.0213
0.7790	2.5820	0.0204
0.7810	2.5754	0.0198
0.7830	2.5693	0.0196
0.7850	2.5637	0.0195
0.7870	2.5585	0.0196
0.7890	2.5535	0.0198
