Material: perovskite / CH3NH3PbI3 / Leguy-hydrated
Optical constants. A. M. A. Leguy, Y. Hu, M. Campoy-Quiles, M. I. Alonso, O. J. Weber, P. Azarhoosh, M. van Schilfgaarde, M. T. Weller, T Bein, J. Nelson, P. Docampo, and P. R. F. Barnes. Reversible hydration of CH3NH3PbI3 in films, single crystals, and solar cells, Chem. Matter. 27, 3397-3407 (2015)
Comments: Hydrated single crystal CH3NH3PbI3.H2O; orientation unknown, hydrate phase grown on single crystal; room temperature; critical point model used for fit, 249 nm - 427 nm - fit not reliable for sub-bandgap region - see reference
wavelength (um)	n	k
0.2070	2.2205	1.1192
0.2080	2.2186	1.1164
0.2090	2.2168	1.1136
0.2100	2.2149	1.1110
0.2110	2.2131	1.1084
0.2120	2.2111	1.1058
0.2130	2.2092	1.1033
0.2140	2.2072	1.1009
0.2150	2.2052	1.0986
0.2160	2.2031	1.0963
0.2170	2.2010	1.0940
0.2180	2.1988	1.0919
0.2190	2.1966	1.0897
0.2200	2.1943	1.0877
0.2210	2.1919	1.0857
0.2220	2.1895	1.0837
0.2230	2.1869	1.0819
0.2240	2.1843	1.0801
0.2250	2.1816	1.0783
0.2260	2.1787	1.0766
0.2270	2.1757	1.0750
0.2280	2.1726	1.0734
0.2290	2.1693	1.0719
0.2300	2.1658	1.0705
0.2310	2.1622	1.0692
0.2320	2.1583	1.0679
0.2330	2.1542	1.0668
0.2340	2.1498	1.0657
0.2350	2.1451	1.0648
0.2360	2.1400	1.0640
0.2370	2.1346	1.0634
0.2380	2.1288	1.0630
0.2390	2.1224	1.0628
0.2400	2.1156	1.0629
0.2410	2.1081	1.0633
0.2420	2.1000	1.0641
0.2430	2.0911	1.0654
0.2440	2.0814	1.0673
0.2450	2.0708	1.0699
0.2460	2.0592	1.0733
0.2470	2.0464	1.0780
0.2480	2.0325	1.0840
0.2490	2.0173	1.0917
0.2500	2.0007	1.1017
0.2510	1.9830	1.1143
0.2520	1.9641	1.1304
0.2530	1.9444	1.1506
0.2540	1.9244	1.1759
0.2550	1.9053	1.2071
0.2560	1.8883	1.2451
0.2570	1.8754	1.2903
0.2580	1.8692	1.3427
0.2590	1.8729	1.4014
0.2600	1.8889	1.4635
0.2610	1.9187	1.5253
0.2620	1.9625	1.5824
0.2630	2.0186	1.6305
0.2640	2.0836	1.6660
0.2650	2.1529	1.6867
0.2660	2.2218	1.6938
0.2670	2.2869	1.6893
0.2680	2.3458	1.6754
0.2690	2.3972	1.6549
0.2700	2.4415	1.6307
0.2710	2.4794	1.6046
0.2720	2.5113	1.5779
0.2730	2.5384	1.5516
0.2740	2.5619	1.5262
0.2750	2.5822	1.5018
0.2760	2.6001	1.4787
0.2770	2.6163	1.4566
0.2780	2.6310	1.4357
0.2790	2.6447	1.4155
0.2800	2.6575	1.3961
0.2810	2.6696	1.3772
0.2820	2.6812	1.3587
0.2830	2.6922	1.3404
0.2840	2.7029	1.3222
0.2850	2.7129	1.3039
0.2860	2.7225	1.2855
0.2870	2.7314	1.2668
0.2880	2.7395	1.2478
0.2890	2.7468	1.2286
0.2900	2.7531	1.2091
0.2910	2.7582	1.1894
0.2920	2.7622	1.1697
0.2930	2.7646	1.1500
0.2940	2.7658	1.1306
0.2950	2.7654	1.1116
0.2960	2.7636	1.0934
0.2970	2.7604	1.0761
0.2980	2.7559	1.0600
0.2990	2.7504	1.0453
0.3000	2.7440	1.0323
0.3010	2.7371	1.0209
0.3020	2.7298	1.0112
0.3030	2.7226	1.0035
0.3040	2.7156	0.9974
0.3050	2.7092	0.9930
0.3060	2.7036	0.9902
0.3070	2.6991	0.9887
0.3080	2.6957	0.9883
0.3090	2.6937	0.9889
0.3100	2.6931	0.9902
0.3110	2.6939	0.9919
0.3120	2.6964	0.9939
0.3130	2.7003	0.9959
0.3140	2.7056	0.9978
0.3150	2.7122	0.9993
0.3160	2.7203	1.0002
0.3170	2.7297	1.0005
0.3180	2.7401	1.0001
0.3190	2.7515	0.9987
0.3200	2.7640	0.9962
0.3210	2.7772	0.9925
0.3220	2.7911	0.9877
0.3230	2.8055	0.9815
0.3240	2.8204	0.9740
0.3250	2.8356	0.9650
0.3260	2.8508	0.9545
0.3270	2.8661	0.9425
0.3280	2.8811	0.9290
0.3290	2.8959	0.9140
0.3300	2.9101	0.8976
0.3310	2.9237	0.8796
0.3320	2.9364	0.8602
0.3330	2.9482	0.8394
0.3340	2.9588	0.8174
0.3350	2.9682	0.7942
0.3360	2.9763	0.7700
0.3370	2.9828	0.7449
0.3380	2.9878	0.7190
0.3390	2.9911	0.6925
0.3400	2.9927	0.6655
0.3410	2.9925	0.6383
0.3420	2.9904	0.6109
0.3430	2.9866	0.5836
0.3440	2.9810	0.5566
0.3450	2.9737	0.5299
0.3460	2.9647	0.5038
0.3470	2.9540	0.4783
0.3480	2.9419	0.4536
0.3490	2.9283	0.4299
0.3500	2.9134	0.4072
0.3510	2.8972	0.3855
0.3520	2.8799	0.3651
0.3530	2.8616	0.3458
0.3540	2.8423	0.3279
0.3550	2.8222	0.3112
0.3560	2.8014	0.2959
0.3570	2.7799	0.2820
0.3580	2.7579	0.2694
0.3590	2.7354	0.2581
0.3600	2.7126	0.2482
0.3610	2.6894	0.2397
0.3620	2.6659	0.2325
0.3630	2.6422	0.2267
0.3640	2.6183	0.2221
0.3650	2.5943	0.2190
0.3660	2.5702	0.2173
0.3670	2.5460	0.2169
0.3680	2.5218	0.2180
0.3690	2.4975	0.2204
0.3700	2.4733	0.2243
0.3710	2.4491	0.2296
0.3720	2.4249	0.2365
0.3730	2.4008	0.2450
0.3740	2.3768	0.2552
0.3750	2.3529	0.2672
0.3760	2.3293	0.2812
0.3770	2.3060	0.2976
0.3780	2.2830	0.3163
0.3790	2.2607	0.3375
0.3800	2.2390	0.3614
0.3810	2.2183	0.3883
0.3820	2.1989	0.4185
0.3830	2.1811	0.4522
0.3840	2.1661	0.4906
0.3850	2.1542	0.5332
0.3860	2.1463	0.5800
0.3870	2.1435	0.6312
0.3880	2.1468	0.6865
0.3890	2.1578	0.7457
0.3900	2.1805	0.8082
0.3910	2.2146	0.8717
0.3920	2.2614	0.9339
0.3930	2.3216	0.9924
0.3940	2.3959	1.0444
0.3950	2.4874	1.0814
0.3960	2.5898	1.1006
0.3970	2.6983	1.0995
0.3980	2.8081	1.0765
0.3990	2.9135	1.0295
0.4000	3.0013	0.9560
0.4010	3.0704	0.8697
0.4020	3.1198	0.7758
0.4030	3.1493	0.6790
0.4040	3.1557	0.5867
0.4050	3.1478	0.5029
0.4060	3.1303	0.4275
0.4070	3.1053	0.3608
0.4080	3.0746	0.3055
0.4090	3.0417	0.2589
0.4100	3.0079	0.2189
0.4110	2.9739	0.1846
0.4120	2.9407	0.1574
0.4130	2.9087	0.1344
0.4140	2.8778	0.1147
0.4150	2.8482	0.0981
0.4160	2.8206	0.0851
0.4170	2.7942	0.0738
0.4180	2.7689	0.0641
0.4190	2.7453	0.0565
0.4200	2.7230	0.0501
0.4210	2.7016	0.0447
0.4220	2.6814	0.0403
0.4230	2.6625	0.0368
0.4240	2.6443	0.0340
0.4250	2.6269	0.0316
0.4260	2.6107	0.0300
0.4270	2.5951	0.0287
