Material: alloys / Nb-Sn / Golovashkin-40
Optical constants. A. I. Golovashkin, E. D. Donner, I. S. Levchenko, G. P. Motulevich. Optical properties and electronic characteristics of alloys of niobium with tin, Sov. Phys. JETP 32, 1064-1067 (1971)
Comments: 40 wt% Sn; room temperature.
wavelength (um)	n	k
1.0	2.6	2.35
1.25	2.5	2.55
1.5	2.45	2.8
1.8	2.55	3.2
2.0	2.75	3.6
2.5	3.0	4.35
3.0	3.4	5.1
3.5	3.7	5.9
4.0	4.1	6.6
4.5	4.5	7.2
5.0	4.85	7.9
5.5	5.25	8.5
6.0	5.7	9.05
6.5	6.1	9.5
7.0	6.45	10.0
7.5	6.85	10.6
8.0	7.3	11.0
