Material: schott / inquiry / BK7G18
Optical constants. SCHOTT Zemax catalog 2015-07-22
Comments: inquiry glass
Dispersion formula 2, range 0.38 2.5 um, coefficients 0 1.26538542 0.00813104078 0.0144191073 0.0543303226 1.00323028 102.821166
wavelength (um)	k
0.380	3.0551E-06
0.390	1.5803E-06
0.400	8.5733E-07
0.405	6.5853E-07
0.420	3.3217E-07
0.436	1.8849E-07
0.460	1.1099E-07
0.500	6.9952E-08
0.546	4.7570E-08
0.580	3.9183E-08
0.620	3.1832E-08
0.660	2.5363E-08
0.700	1.5652E-08
1.060	6.7549E-09
1.530	1.0336E-07
1.970	1.0859E-06
2.325	4.5602E-06
2.500	9.0673E-06
