Material: schott / inquiry / LF5G15
Optical constants. SCHOTT Zemax catalog 2015-07-22
Comments: inquiry glass
Dispersion formula 2, range 0.38 2.5 um, coefficients 0 1.28887331 0.0092001566 0.162818811 0.0456954308 10.5579792 1275.44015
wavelength (um)	k
0.390	3.3012E-06
0.400	1.7960E-06
0.405	1.3534E-06
0.420	6.1346E-07
0.436	3.0104E-07
0.460	1.2528E-07
0.500	6.0004E-08
0.546	3.6886E-08
0.580	2.9778E-08
0.620	2.5824E-08
0.660	2.3237E-08
0.700	1.7897E-08
1.060	6.7549E-09
1.530	7.3606E-08
1.970	1.4386E-06
2.325	4.8395E-06
2.500	7.2916E-06
