Material: schott / inquiry / N-LAF36
Optical constants. SCHOTT Zemax catalog 2015-07-22
Comments: inquiry glass
Dispersion formula 2, range 0.35 2.5 um, coefficients 0 1.85744228 0.00982397191 0.294098729 0.0384309138 1.16615417 89.3984634
wavelength (um)	k
0.350	2.1904E-06
0.365	9.0220E-07
0.370	6.8288E-07
0.380	4.1427E-07
0.390	2.6159E-07
0.400	1.7731E-07
0.405	1.5023E-07
0.420	1.1147E-07
0.436	8.5873E-08
0.460	5.6725E-08
0.500	3.2154E-08
0.546	1.7467E-08
0.580	1.4829E-08
0.620	1.5852E-08
0.660	1.2643E-08
0.700	1.3409E-08
1.060	2.0305E-08
1.530	9.8390E-08
1.970	8.0161E-07
2.325	4.8395E-06
2.500	1.4583E-05
