Material: schott / inquiry / SFL6
Optical constants. SCHOTT Zemax catalog 2015-07-22
Comments: inquiry glass
Dispersion formula 2, range 0.37 2.325 um, coefficients 0 1.78922056 0.0135163537 0.328427448 0.0622729599 2.01639441 168.014713
wavelength (um)	k
0.370	4.6074E-06
0.380	1.6768E-06
0.390	8.1179E-07
0.400	5.0990E-07
0.405	4.2349E-07
0.420	2.8171E-07
0.436	2.0932E-07
0.460	1.5427E-07
0.500	9.8478E-08
0.546	5.2937E-08
0.580	3.7298E-08
0.620	3.3838E-08
0.660	2.5363E-08
0.700	2.4646E-08
1.060	4.0734E-08
1.530	2.4412E-08
1.970	3.2165E-07
2.325	1.2903E-06
