Material: glass / lzos / BF24
Optical constants. LZOS Clear optical glass catalogue
wavelength (um)	n
0.3650	1.68139
0.40466	1.66553
0.43583	1.656803
0.47999	1.647777
0.48613	1.646746
0.4880	1.64643
0.5140	1.64258
0.5208	1.64168
0.5300	1.64052
0.54607	1.638639
0.5682	1.63634
0.58756	1.634551
0.58929	1.634400
0.6328	1.63103
0.64385	1.630281
0.6471	1.63007
0.65627	1.629486
0.6943	1.62732
0.70652	1.62669
0.7682	1.62396
0.8521	1.62108
0.8900	1.62000
1.0139	1.61712
1.0600	1.61623
1.1286	1.61502
1.3951	1.61116
1.5296	1.60944
1.8131	1.60591
1.9701	1.60390
2.2493	1.60010
2.3254	1.59901
