Material: glass / barberini / D0082
Optical constants. Barberini D0082 glass specifications, 2010-08
Comments: 20 Â°CHigh Index Glass; Colour: clear; Application: High index light weight glass for corrective lenses with very high power
wavelength (um)	n
0.43583	1.9238
0.47999	1.9083
0.48613	1.9066
0.54607	1.8929
0.58756	1.8860
0.58929	1.8858
0.64385	1.8789
0.65627	1.8776
