Material: glass / barberini / D0191
Optical constants. Barberini D0191 glass specifications, 2010-06
Comments: 20 Â°CMold Glass; Colour: clear; Application: Special glass, in particular suitable for a rapid chemical toughening without problems. The ideal material for moulds for the manufacture of plastic lenses.
wavelength (um)	n
0.43583	1.5338
0.47999	1.5296
0.48613	1.5291
0.54607	1.5251
0.58756	1.5230
0.58929	1.5229
0.64385	1.5208
0.65627	1.5204
