Material: glass / barberini / D0888
Optical constants. Barberini D0888 glass specifications, 2010-08
Comments: 20 Â°CHigh Index Glass; Colour: clear; Application: High index light weight glass for corrective lenses with high power
wavelength (um)	n
0.43583	1.7237
0.47999	1.7145
0.48613	1.7135
0.54607	1.7052
0.58756	1.7010
0.58929	1.7008
0.64385	1.6965
0.65627	1.6957
