Material: glass / barberini / D1214
Optical constants. Barberini D1214 glass specifications, 2010-05
Comments: 20 Â°CSun Protection Glass; Colour: grey; Application: Dark tinted sunglare filter with with IR- and high UV- absorption filter category 3 acc. to DIN EN 1836
wavelength (um)	n
0.43583	1.5361
0.47999	1.5307
0.48613	1.5302
0.54607	1.5251
0.58756	1.5226
0.58929	1.5225
0.64385	1.5199
0.65627	1.5195
