Material: glass / barberini / D1219
Optical constants. Barberini D1219 glass specifications, 2010-08
Comments: 20 °CSun Protection Glass; Colour: grey; Application: medium tinted sunglare filter with high UV- absorption filter category 2 acc. to DIN EN 1836 (for τv < 18% filter category 3)
wavelength (um)	n
0.43583	1.5364
0.47999	1.5311
0.48613	1.5305
0.54607	1.5256
0.58756	1.5230
0.58929	1.5230
0.64385	1.5201
0.65627	1.5200
