Material: glass / barberini / D4150
Optical constants. Barberini D4150 glass specifications, 2010-11
Comments: 20 Â°CSun Protection Glass; Colour: blue; Application: light tinted sunglare filter with contrast intensification and UV-absorption filter category 1 acc. to DIN EN 1836
wavelength (um)	n
0.43583	1.5624
0.47999	1.5569
0.54607	1.5512
0.58929	1.5485
0.64385	1.5458
