Material: glass / barberini / D6117
Optical constants. Barberini D6117 glass specifications, 2010-06
Comments: 20 °CSun Protection Glass; Colour: brown; Application: dark tinted sunglare filter with high UV- absorption filter category 3 acc. to DIN EN 1836 (for τv > 18% filter category 2)
wavelength (um)	n
0.43583	1.5194
0.47999	1.5153
0.48613	1.5147
0.54607	1.5110
0.58756	1.5090
0.58929	1.5089
0.64385	1.5069
0.65627	1.5063
