Material: other / soot / propane soot - Dalzell
Optical constants. W. H. Dalzell and A. F. Sarofim. Optical constants of soot and their application to heat-flux calculations, J. Heat Transfer 91, 100-104 (1969)
Comments: Room temperature
wavelength (um)	n	k
0.4358	1.57	0.46
0.4500	1.56	0.50
0.5500	1.57	0.53
0.6500	1.56	0.52
0.8065	1.57	0.49
2.5	2.04	1.15
3.0	2.21	1.23
4.0	2.38	1.44
5.0	2.07	1.72
6.0	2.62	1.67
7.0	3.05	1.91
8.5	3.26	2.10
10.0	3.48	2.46
